data_c00040.vasp
_audit_creation_method             Generated by GULP
_audit_author_name                 Salvador R. G. Balestra
_symmetry_space_group_name_H-M     'P 1             '
_symmetry_Int_Tables_number        1

loop_
_symmetry_equiv_pos_site_id
_symmetry_equiv_pos_as_xyz
_cell_length_a                       17.0973
_cell_length_b                        7.6239
_cell_length_c                       10.2445
_cell_angle_alpha                   90.3565
_cell_angle_beta                    90.4150
_cell_angle_gamma                   89.5736

loop_
_atom_site_label
_atom_site_type_symbol
_atom_site_fract_x
_atom_site_fract_y
_atom_site_fract_z
_atom_site_charge
  Ge     Ge        0.160189999999943    0.293909999999983    0.273440000000051  0.0000
  Ge     Ge        0.669956392016013    0.713373953508262    0.019831322298407  0.0000
  Si     Si        0.046062463262248    0.003109938981492    0.355250178314940  0.0000
  Si     Si        0.449777718128715    0.010465313381834    0.358759488210099  0.0000
  Si     Si        0.948725567208454    0.984118290740388    0.613192420077965  0.0000
  Si     Si        0.550043786029704    0.003440568923649    0.618136642891646  0.0000
  Si     Si        0.559097420726356    0.002104305586901    0.111023621554081  0.0000
  Si     Si        0.947484178204989    0.988691055155615    0.094214262378775  0.0000
  Si     Si        0.447683960878055    0.990980618846142    0.870761048953161  0.0000
  Si     Si        0.060525140155062    0.996453812980599    0.855538558210096  0.0000
  Si     Si        0.337852463941619    0.716658744655580    0.269739062092340  0.0000
  Si     Si        0.834676705676870    0.279016355403622    0.704842559688563  0.0000
  Si     Si        0.665512932206088    0.712937623990645    0.709670474280943  0.0000
  Si     Si        0.844169426633800    0.680536854101194    0.708151370024979  0.0000
  Si     Si        0.655042408330200    0.306165886363418    0.708307143459304  0.0000
  Si     Si        0.155975659864818    0.705179844364033    0.265197404631331  0.0000
  Si     Si        0.343851631210648    0.314011706899683    0.280739584483408  0.0000
  Si     Si        0.653592292747787    0.311418738894894    0.011242322764399  0.0000
  Si     Si        0.851947732250305    0.671118028417726    0.015698246920049  0.0000
  Si     Si        0.347199902538036    0.303423757596105    0.974174022562273  0.0000
  Si     Si        0.157582302538615    0.688126920081760    0.962190819331146  0.0000
  Si     Si        0.338809297903544    0.702557721419955    0.965820324499291  0.0000
  Si     Si        0.166875239941880    0.284430183271598    0.963431287154340  0.0000
  Si     Si        0.834936275805235    0.277468716674142    0.009660823206423  0.0000
  O3     O3        0.099942887816707    0.172165879178479    0.369952348997116  0.0000
  O2     O2        0.388095483560841    0.851288846106144    0.355833402161236  0.0000
  O2     O2        0.887262845826435    0.144706496929554    0.622478462759658  0.0000
  O2     O2        0.611096392844813    0.841717629511307    0.624654859838576  0.0000
  O2     O2        0.904433106743801    0.800694515154061    0.631358914971552  0.0000
  O2     O2        0.595923351247937    0.187907918474785    0.624060917858536  0.0000
  O2     O2        0.103253948540242    0.834713399489713    0.350935924871921  0.0000
  O2     O2        0.403376312031627    0.195188296560097    0.365031128554279  0.0000
  O2     O2        0.984876397379947    0.984171733333015    0.470459782190664  0.0000
  O2     O2        0.505903232694662    0.990899925182525    0.481556208558262  0.0000
  O2     O2        0.997718292119897    0.021165961847498    0.221889472397654  0.0000
  O2     O2        0.501840530189411    0.003621079727605    0.230926430294266  0.0000
  O2     O2        0.019597479011239    0.004464753657026    0.715293723484024  0.0000
  O2     O2        0.484895122551416    0.992647715387064    0.729002052915122  0.0000
  O2     O2        0.599349637540380    0.191338712552176    0.099536610934002  0.0000
  O2     O2        0.915419477009564    0.789977041012709    0.090977942631049  0.0000
  O2     O2        0.406203801875766    0.178130612222205    0.896625803178628  0.0000
  O2     O2        0.103409408073081    0.807835159380961    0.869837454110768  0.0000
  O2     O2        0.385204862678360    0.834015382570078    0.874013512776163  0.0000
  O2     O2        0.122341716076966    0.154474698613290    0.864603481516009  0.0000
  O3     O3        0.625233308262193    0.855618211164886    0.125936680793765  0.0000
  O2     O2        0.875786795747027    0.127492990232702    0.095150264386914  0.0000
  O2     O2        0.513746392600852    0.950592082158729    0.977913012743385  0.0000
  O2     O2        0.997068023440268    0.027679530934633    0.966586722656474  0.0000
  O3     O3        0.132243306341103    0.509232599340461    0.294268694649940  0.0000
  O2     O2        0.363981556591822    0.518518721285067    0.303990739638843  0.0000
  O2     O2        0.863354717991653    0.476749952447398    0.677517729746564  0.0000
  O2     O2        0.636772599326525    0.512476864383495    0.689794686401912  0.0000
  O3     O3        0.256432392785419    0.273837924031254    0.322986427108297  0.0000
  O2     O2        0.246505326984450    0.740597867667708    0.302269958703054  0.0000
  O2     O2        0.743653481289687    0.262468769073290    0.663968245546828  0.0000
  O2     O2        0.755651989130447    0.726249077261556    0.663379557544267  0.0000
  O3     O3        0.152872450263118    0.229656367042636    0.111783224599851  0.0000
  O2     O2        0.351228264249147    0.756170419557578    0.117016972957811  0.0000
  O2     O2        0.843185680759142    0.231407867108766    0.856920085567163  0.0000
  O3     O3        0.661123551031581    0.773915288847193    0.858749117209839  0.0000
  O2     O2        0.852765881718297    0.717323481094247    0.862158216739177  0.0000
  O2     O2        0.643380236233461    0.256586399477525    0.859488049852426  0.0000
  O2     O2        0.142598168033154    0.745430809393004    0.111571779488350  0.0000
  O2     O2        0.353889410077025    0.265682838602593    0.127946546303429  0.0000
  O3     O3        0.628650228710634    0.509051768366770    0.035658542947125  0.0000
  O2     O2        0.874258789653494    0.466599370366328    0.038190634310117  0.0000
  O2     O2        0.369856905602267    0.504163010776023    0.943318695055778  0.0000
  O2     O2        0.136264039144234    0.484026606156321    0.942104997327133  0.0000
  O2     O2        0.744538424169356    0.285486859744784    0.050349164374993  0.0000
  O3     O3        0.766442031490111    0.709196525148062    0.068628683691780  0.0000
  O2     O2        0.258455667026485    0.269473516961394    0.928890161306706  0.0000
  O2     O2        0.247899625234518    0.717316143981434    0.926927679943466  0.0000
