data_c00029.vasp
_audit_creation_method             Generated by GULP
_audit_author_name                 Salvador R. G. Balestra
_symmetry_space_group_name_H-M     'P 1             '
_symmetry_Int_Tables_number        1

loop_
_symmetry_equiv_pos_site_id
_symmetry_equiv_pos_as_xyz
_cell_length_a                       17.1334
_cell_length_b                        7.6067
_cell_length_c                       10.2834
_cell_angle_alpha                   91.1594
_cell_angle_beta                    90.0009
_cell_angle_gamma                   90.0005

loop_
_atom_site_label
_atom_site_type_symbol
_atom_site_fract_x
_atom_site_fract_y
_atom_site_fract_z
_atom_site_charge
  Ge     Ge        0.160189999999943    0.293909999999983    0.273440000000051  0.0000
  Ge     Ge        0.660199499151580    0.649611020261195    0.700099856406122  0.0000
  Si     Si        0.054158842217527    0.988883299596905    0.353111870499915  0.0000
  Si     Si        0.459283725573714    0.979450303966068    0.360001204634980  0.0000
  Si     Si        0.959287871909199    0.964087408395822    0.613496051579619  0.0000
  Si     Si        0.554162229133287    0.954626602005993    0.620394691910400  0.0000
  Si     Si        0.566513441159518    0.970755935716953    0.113974006677519  0.0000
  Si     Si        0.951745791736168    0.977437681858683    0.097335378005065  0.0000
  Si     Si        0.451729727305906    0.966119125155472    0.876133938032712  0.0000
  Si     Si        0.066513011518657    0.972805518259256    0.859488302230845  0.0000
  Si     Si        0.353491415713640    0.673882870429472    0.266486866785723  0.0000
  Si     Si        0.853497252760641    0.269645687033382    0.707088875499088  0.0000
  Si     Si        0.843307550120774    0.674540065825201    0.701972318037101  0.0000
  Si     Si        0.673310354325284    0.237843518988579    0.708613391359318  0.0000
  Si     Si        0.173299589875674    0.705677122954248    0.264964349478913  0.0000
  Si     Si        0.343302684924192    0.268988023692897    0.271583592842122  0.0000
  Si     Si        0.674875024572971    0.257645216044515    0.012240688978171  0.0000
  Si     Si        0.840821181902604    0.684906075043941    0.007407804628705  0.0000
  Si     Si        0.340818341337787    0.258647133910912    0.966152456518125  0.0000
  Si     Si        0.174862809702538    0.685917777627287    0.961337902797171  0.0000
  Si     Si        0.355004604087729    0.656066541725982    0.963720108943961  0.0000
  Si     Si        0.160804235529098    0.285405803660767    0.963938819277399  0.0000
  Si     Si        0.660812740149730    0.658142968134957    0.009609145433746  0.0000
  Si     Si        0.855012906833117    0.287497595147590    0.009858318220113  0.0000
  O3     O3        0.092544814247925    0.179919538331758    0.362127890218646  0.0000
  O2     O2        0.411426617617161    0.797268750613046    0.349385164413152  0.0000
  O2     O2        0.911435616326504    0.146261539437543    0.624203459460560  0.0000
  O3     O3        0.592538947699896    0.763579124978419    0.611432216546448  0.0000
  O2     O2        0.900857432606715    0.799978354109541    0.624205098412094  0.0000
  O2     O2        0.626465270291689    0.090897905372746    0.627343738029988  0.0000
  O2     O2        0.126453321782155    0.852575832830415    0.346283861706351  0.0000
  O2     O2        0.400836299570019    0.143542599901350    0.349378669126454  0.0000
  O2     O2        0.999663490643959    0.950843263023818    0.474429965795594  0.0000
  O2     O2        0.499764663066939    0.992722074314110    0.498971374409363  0.0000
  O2     O2        0.001271906595968    0.962413821043756    0.226236552800599  0.0000
  O2     O2        0.527116036749598    0.987226523480365    0.253640609819356  0.0000
  O2     O2        0.027197714325154    0.956336905871519    0.719739687119495  0.0000
  O2     O2        0.501157363021656    0.981090347420980    0.747126063054055  0.0000
  O2     O2        0.631220542422399    0.123615372762871    0.105108795233368  0.0000
  O2     O2        0.885516478646295    0.827439325198623    0.095786879016077  0.0000
  O2     O2        0.385502680683145    0.116118246809884    0.877761238939524  0.0000
  O2     O2        0.131206556319965    0.819938504010963    0.868466339683847  0.0000
  O2     O2        0.412101570202926    0.773406604146946    0.877679482940202  0.0000
  O2     O2        0.105831782955677    0.164798752188243    0.872478403099423  0.0000
  O2     O2        0.605831581692763    0.778758246949723    0.101045410948654  0.0000
  O2     O2        0.912110148510314    0.170149894845685    0.095901353903154  0.0000
  O2     O2        0.503890252801927    0.001243042137151    0.002222240374835  0.0000
  O2     O2        0.003802951842676    0.942368937512475    0.971114076109102  0.0000
  O3     O3        0.142083172991049    0.514542076757863    0.297357674772526  0.0000
  O2     O2        0.370407603793470    0.470659201074225    0.296425712152359  0.0000
  O2     O2        0.870416153991775    0.472868895348885    0.677146595955896  0.0000
  O3     O3        0.642091273732067    0.428970859124250    0.676201754844315  0.0000
  O3     O3        0.255071730327098    0.247276532293215    0.318247543683349  0.0000
  O2     O2        0.264465752941911    0.719994337079169    0.303713354972875  0.0000
  O2     O2        0.764473255670080    0.223528284382442    0.669845817358624  0.0000
  O3     O3        0.755080255009822    0.696236745863412    0.655274683950524  0.0000
  O3     O3        0.146259470736309    0.235483014198102    0.111909722431486  0.0000
  O2     O2        0.367709537241923    0.710027629384501    0.114492183129457  0.0000
  O2     O2        0.867705390178833    0.233517464830047    0.859087698119394  0.0000
  O3     O3        0.646283340547008    0.708052509106247    0.861630737347152  0.0000
  O2     O2        0.847738837026102    0.725548469702170    0.854950467559907  0.0000
  O2     O2        0.664161338992797    0.200324051280700    0.861928138601419  0.0000
  O2     O2        0.164138228968974    0.743226932428081    0.111651989988419  0.0000
  O2     O2        0.347759104799652    0.217985497002550    0.118604848441971  0.0000
  O2     O2        0.640313724974708    0.453826668127527    0.033050486345581  0.0000
  O2     O2        0.876136337768598    0.491863945134484    0.034733398816732  0.0000
  O2     O2        0.376121936934646    0.451700521604375    0.938829560309495  0.0000
  O2     O2        0.140311392291254    0.489728897794577    0.940510160618298  0.0000
  O2     O2        0.765806985779791    0.253476117925039    0.050091957788311  0.0000
  O2     O2        0.750611879753232    0.692270872637648    0.048050783032458  0.0000
  O2     O2        0.250605859004843    0.251274896111828    0.925529719821968  0.0000
  O2     O2        0.265796976603441    0.690109805744826    0.923505024199687  0.0000
