data_c00022.vasp
_audit_creation_method             Generated by GULP
_audit_author_name                 Salvador R. G. Balestra
_symmetry_space_group_name_H-M     'P 1             '
_symmetry_Int_Tables_number        1

loop_
_symmetry_equiv_pos_site_id
_symmetry_equiv_pos_as_xyz
_cell_length_a                       17.0524
_cell_length_b                        7.5960
_cell_length_c                       10.3065
_cell_angle_alpha                   90.5724
_cell_angle_beta                    89.8367
_cell_angle_gamma                   89.8248

loop_
_atom_site_label
_atom_site_type_symbol
_atom_site_fract_x
_atom_site_fract_y
_atom_site_fract_z
_atom_site_charge
  Ge     Ge        0.556730000000016    0.000000000000000    0.122129999999970  0.0000
  Ge     Ge        0.663908973839417    0.708595747056771    0.702820024597185  0.0000
  Si     Si        0.045634684661417    0.985717762840740    0.351724346826092  0.0000
  Si     Si        0.444959092789067    0.998930957900017    0.368562785794048  0.0000
  Si     Si        0.950089758825030    0.972688823929606    0.614625165690408  0.0000
  Si     Si        0.543721888150334    0.991078635545833    0.622260239835407  0.0000
  Si     Si        0.941996722855439    0.982808315309909    0.100060554610346  0.0000
  Si     Si        0.443746410575389    0.982417699228449    0.879124091849849  0.0000
  Si     Si        0.056152443648085    0.983064022120332    0.863481860913462  0.0000
  Si     Si        0.160782576879935    0.274709428636489    0.262850618676903  0.0000
  Si     Si        0.331537023625319    0.706116368880091    0.264580791292485  0.0000
  Si     Si        0.831559165962259    0.260934114807117    0.703797607065267  0.0000
  Si     Si        0.848075198085569    0.664751360223360    0.698397310050444  0.0000
  Si     Si        0.650289202346251    0.293540475237786    0.706753047432167  0.0000
  Si     Si        0.151182168781193    0.680072178324531    0.263061452652087  0.0000
  Si     Si        0.341632343218948    0.301039219083131    0.266847970177580  0.0000
  Si     Si        0.649946843796520    0.313411919903480    0.006882001782243  0.0000
  Si     Si        0.850317867538235    0.664762489965790    0.002430501044743  0.0000
  Si     Si        0.346995153521413    0.299789220005699    0.964858105438462  0.0000
  Si     Si        0.150709663119465    0.669510679754530    0.960528311669741  0.0000
  Si     Si        0.331670372513257    0.698272644198451    0.961339496748200  0.0000
  Si     Si        0.165429245997802    0.270383100724195    0.960530459336892  0.0000
  Si     Si        0.669781233664721    0.716950122741828    0.007903573504945  0.0000
  Si     Si        0.830509740871627    0.269118411502328    0.007250879960130  0.0000
  O2     O2        0.107942839847113    0.145119605335498    0.347410639048959  0.0000
  O2     O2        0.384656353368484    0.838298751182580    0.347255968023369  0.0000
  O2     O2        0.881778402436011    0.119750598851000    0.622408045027600  0.0000
  O3     O3        0.606260102531880    0.835627317329843    0.604113133651162  0.0000
  O2     O2        0.910967740072031    0.779458025825460    0.618799298838609  0.0000
  O2     O2        0.591797204865641    0.173991686281947    0.622139539897161  0.0000
  O2     O2        0.092098195203200    0.800600450218239    0.346049363999545  0.0000
  O2     O2        0.399639246093115    0.183896839535295    0.351681987829502  0.0000
  O2     O2        0.997023555280402    0.996714492478120    0.482855194299185  0.0000
  O2     O2        0.477096739455260    0.992172049563179    0.514032841032924  0.0000
  O2     O2        0.984242587864210    0.002531761007690    0.236114339344368  0.0000
  O3     O3        0.519439041598303    0.985842296599843    0.275750073165120  0.0000
  O2     O2        0.011879900024674    0.999141143932955    0.729232491646881  0.0000
  O2     O2        0.500862440271911    0.960676270138685    0.758750281237393  0.0000
  O3     O3        0.591103402770087    0.211014182594257    0.097975996568136  0.0000
  O2     O2        0.909049679318640    0.784797753751320    0.085829726359257  0.0000
  O2     O2        0.405634990128407    0.178165425542008    0.881237563130006  0.0000
  O2     O2        0.093617029886922    0.788300564186827    0.874494098805601  0.0000
  O2     O2        0.375435203400628    0.835453359736789    0.870025556739799  0.0000
  O2     O2        0.124162313183175    0.129704844794110    0.867317960072421  0.0000
  O3     O3        0.631924300024462    0.848284750732529    0.110252361049478  0.0000
  O2     O2        0.871699449910661    0.124775184032022    0.096275398813191  0.0000
  O3     O3        0.487648653634514    0.940320503810462    0.010832261816406  0.0000
  O2     O2        0.999504654332311    0.027624109791596    0.982776624714904  0.0000
  O2     O2        0.134793891043962    0.475586842102788    0.292187375619814  0.0000
  O2     O2        0.357571320745775    0.506498670798626    0.296013975753032  0.0000
  O2     O2        0.861654863651166    0.456933826847664    0.671017550968666  0.0000
  O3     O3        0.632462929678320    0.494935895129807    0.681954413962968  0.0000
  O2     O2        0.252020904048576    0.251772445906854    0.300152019653978  0.0000
  O2     O2        0.240152168186698    0.730454650360595    0.301214180230282  0.0000
  O2     O2        0.740001331865911    0.245515844183890    0.666550078431587  0.0000
  O3     O3        0.761288725858718    0.718689076570350    0.657440609887554  0.0000
  O2     O2        0.150611394800673    0.226092281360799    0.111292308883801  0.0000
  O2     O2        0.342918493635277    0.746974257649839    0.112847636255500  0.0000
  O2     O2        0.840740466918048    0.219430235767771    0.855905380126517  0.0000
  O3     O3        0.656552207404023    0.781506481085355    0.861659125237693  0.0000
  O2     O2        0.861626073221541    0.705595789421553    0.850685807972723  0.0000
  O2     O2        0.637031833407620    0.248553259453384    0.858567518945549  0.0000
  O2     O2        0.136606387016263    0.717733975912608    0.111420528537000  0.0000
  O2     O2        0.360826348709802    0.258229324620629    0.116396088578040  0.0000
  O2     O2        0.632988007040177    0.521245431337360    0.017972678163293  0.0000
  O2     O2        0.868916632715766    0.460920921900847    0.032889839844668  0.0000
  O2     O2        0.366194617610289    0.502688909901087    0.934922589046678  0.0000
  O2     O2        0.131738989600950    0.465163314938850    0.931990312105616  0.0000
  O2     O2        0.739449605927082    0.271690862430756    0.046931364579534  0.0000
  O2     O2        0.761631149224674    0.708462933380886    0.041417951476908  0.0000
  O2     O2        0.257435218726644    0.259837267513369    0.928494235923038  0.0000
  O2     O2        0.240562998580058    0.706875493150474    0.924009300765871  0.0000
