data_c00030.vasp
_audit_creation_method             Generated by GULP
_audit_author_name                 Salvador R. G. Balestra
_symmetry_space_group_name_H-M     'P 1             '
_symmetry_Int_Tables_number        1

loop_
_symmetry_equiv_pos_site_id
_symmetry_equiv_pos_as_xyz
_cell_length_a                       17.1607
_cell_length_b                        7.6170
_cell_length_c                       10.2651
_cell_angle_alpha                   91.0530
_cell_angle_beta                    90.5686
_cell_angle_gamma                   89.5187

loop_
_atom_site_label
_atom_site_type_symbol
_atom_site_fract_x
_atom_site_fract_y
_atom_site_fract_z
_atom_site_charge
  Ge     Ge        0.160189999999943    0.293909999999983    0.273440000000051  0.0000
  Ge     Ge        0.841737625811083    0.670553823379592    0.699865511872255  0.0000
  Si     Si        0.055691647992916    0.992150716945767    0.362883911764533  0.0000
  Si     Si        0.459132076384550    0.969711701688755    0.356592029907165  0.0000
  Si     Si        0.957157755139888    0.957166398949869    0.617367708808694  0.0000
  Si     Si        0.552016782684283    0.956758639437905    0.623193871410854  0.0000
  Si     Si        0.564430320243310    0.969368840746730    0.110314490829702  0.0000
  Si     Si        0.949594159010621    0.970018387292980    0.113587231485000  0.0000
  Si     Si        0.447088128502347    0.958598932279350    0.873667821172784  0.0000
  Si     Si        0.060998492842451    0.968764538542408    0.873639660636499  0.0000
  Si     Si        0.352422485738257    0.666861796859962    0.262671484632151  0.0000
  Si     Si        0.848193935218075    0.258266831641061    0.704038387810143  0.0000
  Si     Si        0.658746463373993    0.651892260852748    0.702807636057979  0.0000
  Si     Si        0.667523317707177    0.246862518678151    0.707633699403773  0.0000
  Si     Si        0.173184223829391    0.703861100266284    0.263217001545737  0.0000
  Si     Si        0.342781650842496    0.262675870194839    0.269769506287504  0.0000
  Si     Si        0.671114883996096    0.258617033630531    0.011186140404488  0.0000
  Si     Si        0.842585324183906    0.678749263891883    0.009223853129022  0.0000
  Si     Si        0.336604649756744    0.251476353999940    0.963659795832092  0.0000
  Si     Si        0.172408529951315    0.680442494370154    0.957815582281007  0.0000
  Si     Si        0.351697916301646    0.647835445181803    0.958696215611087  0.0000
  Si     Si        0.156794024159934    0.282426000237962    0.962732600334820  0.0000
  Si     Si        0.662721692829754    0.657391640962965    0.008537924690694  0.0000
  Si     Si        0.851231305310930    0.275731677811313    0.007315703561150  0.0000
  O3     O3        0.093062980576194    0.182882936000029    0.362678768157403  0.0000
  O2     O2        0.411572016019388    0.789250217201270    0.342835157895296  0.0000
  O2     O2        0.902056941063643    0.129857671059282    0.618055905546979  0.0000
  O2     O2        0.596077239546560    0.768742629884801    0.624853508160180  0.0000
  O3     O3        0.901097094119408    0.791851601413227    0.603937545779744  0.0000
  O2     O2        0.615421919956128    0.111850473565394    0.624476407589418  0.0000
  O2     O2        0.126555520042840    0.855064976833193    0.339772896170117  0.0000
  O2     O2        0.400963417846699    0.135782285684188    0.347137711039621  0.0000
  O2     O2        0.017878406378871    0.959842559900748    0.501433681606791  0.0000
  O2     O2        0.499544797680902    0.972780634065575    0.496170461274177  0.0000
  O2     O2        0.988085295811007    0.968038819907313    0.255257030230266  0.0000
  O2     O2        0.526757586452169    0.979868543003007    0.251060463141895  0.0000
  O2     O2        0.005692439238591    0.945285575412056    0.750617473728635  0.0000
  O2     O2        0.495598024169800    0.978856686047071    0.744812363660317  0.0000
  O2     O2        0.625916229244446    0.126961318062152    0.102298154101791  0.0000
  O2     O2        0.888887726242904    0.810131965243557    0.105306656845483  0.0000
  O2     O2        0.379636943633283    0.106398671581828    0.875613231561656  0.0000
  O2     O2        0.127065379717769    0.816975003975462    0.867323189104220  0.0000
  O2     O2        0.408996428423403    0.765188239676556    0.874327621840258  0.0000
  O2     O2        0.100398052680011    0.160716508131671    0.873720692152308  0.0000
  O2     O2        0.607426713807303    0.781970458551299    0.094243952025685  0.0000
  O2     O2        0.906753003442999    0.157611305483104    0.096601541727408  0.0000
  O2     O2        0.499632488074363    0.993974854155031    0.000131496445646  0.0000
  O2     O2        0.014171542660611    0.939587544158359    0.004987881373646  0.0000
  O3     O3        0.142025586010897    0.514635430696863    0.298739263238429  0.0000
  O2     O2        0.369798453927239    0.463809120635921    0.293524994229316  0.0000
  O3     O3        0.869207158683938    0.455193786683517    0.674319519302384  0.0000
  O2     O2        0.641197235522312    0.445906883294358    0.677642460341423  0.0000
  O3     O3        0.255058649622330    0.243664928149594    0.317618536018412  0.0000
  O2     O2        0.264335547269282    0.716188296482426    0.303083030124129  0.0000
  O2     O2        0.757680049481305    0.220549599281030    0.669072322665397  0.0000
  O3     O3        0.744882975903221    0.695240429706959    0.656985411241593  0.0000
  O3     O3        0.144162993408451    0.236913524303311    0.112032037047068  0.0000
  O2     O2        0.363925549465160    0.701127381138376    0.109845280441147  0.0000
  O2     O2        0.863017804210679    0.219524911118548    0.856859401528073  0.0000
  O2     O2        0.651243333286407    0.698707074781226    0.856396813752326  0.0000
  O3     O3        0.853361155458916    0.733761851968303    0.861197408911927  0.0000
  O2     O2        0.657704330165210    0.205925246407903    0.860084517408693  0.0000
  O2     O2        0.164581067459493    0.735225222938029    0.108959336975201  0.0000
  O2     O2        0.345292277696248    0.211744560660106    0.116491209796061  0.0000
  O2     O2        0.640168911643965    0.456736002710398    0.037004968773337  0.0000
  O2     O2        0.873837287491985    0.479457923787352    0.027999492489612  0.0000
  O2     O2        0.372158710447283    0.442895920819064    0.934521416887956  0.0000
  O2     O2        0.136587399567080    0.486290427813808    0.936033348074776  0.0000
  O2     O2        0.762194896454043    0.245705423164508    0.047436809780038  0.0000
  O2     O2        0.752107739124203    0.690667958775764    0.048007289798965  0.0000
  O2     O2        0.246120110218126    0.245727019044004    0.923970765745770  0.0000
  O2     O2        0.262487729579447    0.682970135426316    0.916604609037161  0.0000
