data_c00048.vasp
_audit_creation_method             Generated by GULP
_audit_author_name                 Salvador R. G. Balestra
_symmetry_space_group_name_H-M     'P 1             '
_symmetry_Int_Tables_number        1

loop_
_symmetry_equiv_pos_site_id
_symmetry_equiv_pos_as_xyz
_cell_length_a                       17.0265
_cell_length_b                        7.6188
_cell_length_c                       10.2730
_cell_angle_alpha                   91.1875
_cell_angle_beta                    90.2456
_cell_angle_gamma                   90.1434

loop_
_atom_site_label
_atom_site_type_symbol
_atom_site_fract_x
_atom_site_fract_y
_atom_site_fract_z
_atom_site_charge
  Ge     Ge        0.660660000000007    0.294089999999983    0.017439999999965  0.0000
  Ge     Ge        0.848543415300274    0.310918134077299    0.013021626522699  0.0000
  Si     Si        0.047622579125956    0.970780059265680    0.348302503404862  0.0000
  Si     Si        0.447802154722983    0.963393904699052    0.346928947096613  0.0000
  Si     Si        0.948383305043143    0.971347464231523    0.608015624352786  0.0000
  Si     Si        0.547731636969799    0.965667603291040    0.606173006583703  0.0000
  Si     Si        0.556301166413508    0.992494108130338    0.100081414641648  0.0000
  Si     Si        0.943229801315200    0.993115660150910    0.100003598009245  0.0000
  Si     Si        0.443932970231951    0.964756953505915    0.857248189541529  0.0000
  Si     Si        0.055519910054783    0.966401428622560    0.858933199487441  0.0000
  Si     Si        0.153597472544895    0.273007689916294    0.255224447460915  0.0000
  Si     Si        0.341753955843634    0.659488049637043    0.265528201303801  0.0000
  Si     Si        0.841258827506361    0.276393722240844    0.701697472683452  0.0000
  Si     Si        0.654718925703656    0.669545745619730    0.692179749825589  0.0000
  Si     Si        0.836305881762054    0.681943333418601    0.688884236011481  0.0000
  Si     Si        0.661141607728135    0.262934648444418    0.706295705142822  0.0000
  Si     Si        0.160694789567950    0.677174385730758    0.259977366885677  0.0000
  Si     Si        0.335434728864827    0.256080171480571    0.258513936046725  0.0000
  Si     Si        0.838455597967696    0.705546532669454    0.989330695316333  0.0000
  Si     Si        0.335569044195940    0.257655639845214    0.955153167314889  0.0000
  Si     Si        0.164115794368740    0.677526286153455    0.956230377723194  0.0000
  Si     Si        0.345669928993076    0.656868255515488    0.961755003219304  0.0000
  Si     Si        0.153625603437021    0.278280669801590    0.952675837784106  0.0000
  Si     Si        0.654524269140705    0.687847685382651    0.991293975039231  0.0000
  O2     O2        0.096145411101960    0.151909113181252    0.337286224110113  0.0000
  O2     O2        0.397699088214068    0.783388309819173    0.353950848102395  0.0000
  O2     O2        0.898871697170192    0.150725833116932    0.618711385321334  0.0000
  O2     O2        0.597947204049061    0.785321849891309    0.602814891910413  0.0000
  O2     O2        0.889088809247239    0.804927627689641    0.598545940232404  0.0000
  O2     O2        0.605179913547722    0.132120295891796    0.624059779668542  0.0000
  O2     O2        0.107568779730840    0.807212054617885    0.346216708580644  0.0000
  O2     O2        0.388128351405501    0.127524759757415    0.343416898676689  0.0000
  O2     O2        0.000891416635376    0.975983214391544    0.481064564864865  0.0000
  O2     O2        0.504071987421709    0.983842406914956    0.469768763981803  0.0000
  O2     O2        0.984274906095824    0.945625453706533    0.234145653719289  0.0000
  O2     O2        0.500700962543573    0.954619281256602    0.219351146127600  0.0000
  O2     O2        0.007754389465235    0.948544140326749    0.727012841705674  0.0000
  O2     O2        0.481353762656110    0.961211183614459    0.715772461876333  0.0000
  O3     O3        0.603306265249607    0.171237747141737    0.119103394913581  0.0000
  O2     O2        0.866004162618744    0.869852230707344    0.078537962942798  0.0000
  O2     O2        0.380357639466978    0.120827839434646    0.862503908764997  0.0000
  O2     O2        0.119284509892394    0.810981089140580    0.864229956138159  0.0000
  O2     O2        0.403125879077892    0.776927588619484    0.879271013981588  0.0000
  O2     O2        0.098522946457293    0.155762198290154    0.862641674782580  0.0000
  O2     O2        0.619854281071164    0.836677894826326    0.085751055281343  0.0000
  O3     O3        0.915793515504721    0.192098762984072    0.101190763527530  0.0000
  O2     O2        0.508707998252169    0.005719820397458    0.965742573988997  0.0000
  O2     O2        0.999896825169303    0.944294828802074    0.981359314171275  0.0000
  O2     O2        0.135218936553912    0.476904615516155    0.286345339671598  0.0000
  O2     O2        0.360296674634181    0.456267618439105    0.292844338561995  0.0000
  O2     O2        0.862434587783052    0.479415922630525    0.673115434545780  0.0000
  O2     O2        0.634026159635450    0.463295805687468    0.680291088042037  0.0000
  O2     O2        0.243700725838541    0.228916814090308    0.290791526429054  0.0000
  O2     O2        0.251577595387733    0.702452221405091    0.300208139801219  0.0000
  O2     O2        0.751114843648248    0.238697159767701    0.659130566495654  0.0000
  O2     O2        0.744806532618286    0.701325050116952    0.650231731756319  0.0000
  O2     O2        0.137794986333772    0.231907687906892    0.102796757696652  0.0000
  O2     O2        0.357589159628143    0.700007925176101    0.114521455591051  0.0000
  O3     O3        0.851917470923158    0.237949537068119    0.852546311054629  0.0000
  O2     O2        0.640639289714243    0.737213977372565    0.840529209376696  0.0000
  O2     O2        0.849259366118733    0.749522523064976    0.837327320415195  0.0000
  O3     O3        0.657355537676461    0.219550625435745    0.857134536150367  0.0000
  O2     O2        0.150266987714063    0.723357584367009    0.108333727927904  0.0000
  O2     O2        0.349753747465364    0.211901052638127    0.106152106085801  0.0000
  O3     O3        0.618804289638707    0.500955527209219    0.022816320637674  0.0000
  O3     O3        0.881450717030254    0.526310626221108    0.023071813319187  0.0000
  O2     O2        0.366772351930371    0.454192980607648    0.930024497968311  0.0000
  O2     O2        0.132982562853593    0.480418340876539    0.925779844316064  0.0000
  O1     O1        0.755662179561106    0.283870207639136    0.070549867824121  0.0000
  O2     O2        0.747309984698583    0.663638113409781    0.016316384029861  0.0000
  O2     O2        0.244102045811107    0.242605610632992    0.919582107512853  0.0000
  O2     O2        0.255851917340384    0.693302488967235    0.922735110433948  0.0000
