data_c00038.vasp
_audit_creation_method             Generated by GULP
_audit_author_name                 Salvador R. G. Balestra
_symmetry_space_group_name_H-M     'P 1             '
_symmetry_Int_Tables_number        1

loop_
_symmetry_equiv_pos_site_id
_symmetry_equiv_pos_as_xyz
_cell_length_a                       17.0769
_cell_length_b                        7.5831
_cell_length_c                       10.2824
_cell_angle_alpha                   91.0974
_cell_angle_beta                    89.6236
_cell_angle_gamma                   89.3013

loop_
_atom_site_label
_atom_site_type_symbol
_atom_site_fract_x
_atom_site_fract_y
_atom_site_fract_z
_atom_site_charge
  Ge     Ge        0.160189999999943    0.293909999999983    0.273440000000051  0.0000
  Ge     Ge        0.362716912032971    0.628093113183785    0.952118009171768  0.0000
  Si     Si        0.056580262649924    0.988439296980715    0.355188048482140  0.0000
  Si     Si        0.461427616542415    0.967767337336341    0.355818933038599  0.0000
  Si     Si        0.960969283159828    0.961737429117946    0.615075818627208  0.0000
  Si     Si        0.559462728850385    0.965375459583462    0.616171808245813  0.0000
  Si     Si        0.567313067535717    0.969876493549439    0.105478619836699  0.0000
  Si     Si        0.953437405569823    0.969247697720828    0.104293042428537  0.0000
  Si     Si        0.455598509111276    0.945282859267868    0.866056832547264  0.0000
  Si     Si        0.067518099066058    0.961055771120504    0.865832075253893  0.0000
  Si     Si        0.357989153811631    0.662621893298778    0.260317059276094  0.0000
  Si     Si        0.855347608770316    0.271443686737126    0.698494143749089  0.0000
  Si     Si        0.664719707191079    0.659127515909469    0.704754424461345  0.0000
  Si     Si        0.845534154186467    0.677480548711830    0.702467078225004  0.0000
  Si     Si        0.675018464618542    0.252545682012201    0.701595268603939  0.0000
  Si     Si        0.178506000748820    0.703845458583824    0.254828038663153  0.0000
  Si     Si        0.343661859428543    0.256267035764065    0.273513580666866  0.0000
  Si     Si        0.676536980124791    0.254885849825633    0.004795288032980  0.0000
  Si     Si        0.844798513312400    0.680094722270865    0.005478946565868  0.0000
  Si     Si        0.341441411046990    0.226251888837023    0.968988124967296  0.0000
  Si     Si        0.180028899962796    0.671229335696082    0.949339127649297  0.0000
  Si     Si        0.160455098728655    0.275203954203404    0.965354433876084  0.0000
  Si     Si        0.663811629597345    0.655290099905510    0.007115198847741  0.0000
  Si     Si        0.857209104869134    0.279922092285446    0.001585659116717  0.0000
  O3     O3        0.091631348890743    0.182573667951432    0.363060158700564  0.0000
  O2     O2        0.416343584689004    0.782830412040371    0.345082848570089  0.0000
  O2     O2        0.914361224635132    0.148757989702873    0.613727183463508  0.0000
  O2     O2        0.605786800560746    0.778671325765355    0.622640644019587  0.0000
  O2     O2        0.897808819942302    0.805347392477842    0.616840428221167  0.0000
  O2     O2        0.622292936158690    0.122519722780234    0.615928359606346  0.0000
  O2     O2        0.131083766576078    0.859962541329731    0.327680541675765  0.0000
  O2     O2        0.399285441777604    0.129633868638114    0.356763712503454  0.0000
  O2     O2        0.014319408640593    0.939269790670012    0.488294850413012  0.0000
  O2     O2        0.509213671309767    0.970929789713863    0.487605108795359  0.0000
  O2     O2        0.992103254920349    0.965357623191184    0.244010309016241  0.0000
  O2     O2        0.523960972612168    0.991648969354584    0.241485772757609  0.0000
  O2     O2        0.017231871441960    0.948462792412093    0.737301966282581  0.0000
  O2     O2        0.499538045018346    0.994596658246945    0.735007170172920  0.0000
  O2     O2        0.632666859695540    0.120255339410032    0.096565927917481  0.0000
  O2     O2        0.887942275838272    0.818573706678797    0.098162518012143  0.0000
  O2     O2        0.376575860853250    0.063377226233264    0.884681912728890  0.0000
  O2     O2        0.133502745849772    0.807778910278294    0.860202805420934  0.0000
  O3     O3        0.429961852767929    0.743476277957522    0.862415229048281  0.0000
  O2     O2        0.106677260016137    0.153255966796365    0.873702813509693  0.0000
  O2     O2        0.607644778396470    0.776341239360551    0.097233183400596  0.0000
  O2     O2        0.914661001323830    0.161812183315199    0.086457707329550  0.0000
  O2     O2        0.508327001982932    0.997184432464211    0.988401599612757  0.0000
  O2     O2        0.015961316497944    0.924809338642534    0.992524290108739  0.0000
  O3     O3        0.141966015648523    0.517432635703363    0.288472031317994  0.0000
  O2     O2        0.374945223256789    0.456352195358275    0.285857529831748  0.0000
  O2     O2        0.871830705309645    0.475992459674821    0.671038375275578  0.0000
  O2     O2        0.648440866369650    0.453560860927006    0.675353925740623  0.0000
  O3     O3        0.254879877869430    0.250039497733347    0.322912247505056  0.0000
  O2     O2        0.268523472754022    0.708831441798455    0.302030200730971  0.0000
  O2     O2        0.765988467749592    0.226348464271614    0.661815432297305  0.0000
  O2     O2        0.754196094343802    0.703841980623681    0.667819186035406  0.0000
  O3     O3        0.145949001779355    0.226612398719392    0.113828650004402  0.0000
  O3     O3        0.372176672094712    0.703586424134880    0.110493533872106  0.0000
  O2     O2        0.870188004844135    0.231413430777040    0.849798877134391  0.0000
  O2     O2        0.648852357688644    0.702751139307651    0.856928143437030  0.0000
  O2     O2        0.857485514534936    0.725842330283360    0.854399740884995  0.0000
  O2     O2        0.664671879393169    0.205895404920835    0.853078129453703  0.0000
  O2     O2        0.178977040877787    0.734495387486199    0.100088471709469  0.0000
  O2     O2        0.345767266104613    0.190944474732398    0.123123714632636  0.0000
  O2     O2        0.643252271799338    0.452302750487378    0.032719851576352  0.0000
  O2     O2        0.877801488848384    0.483515929329713    0.030674298572994  0.0000
  O3     O3        0.385272634351221    0.406301526091083    0.938425697046559  0.0000
  O2     O2        0.139198974703396    0.479516488136931    0.939305579858229  0.0000
  O2     O2        0.767770587692838    0.243808311040887    0.040458295214111  0.0000
  O2     O2        0.753507902642552    0.691405307130983    0.042075944340115  0.0000
  O2     O2        0.251266818068974    0.244824203900906    0.928456660882686  0.0000
  O3     O3        0.268298210593843    0.660654503629185    0.898984343397235  0.0000
