data_c00006.vasp
_audit_creation_method             Generated by GULP
_audit_author_name                 Salvador R. G. Balestra
_symmetry_space_group_name_H-M     'P 1             '
_symmetry_Int_Tables_number        1

loop_
_symmetry_equiv_pos_site_id
_symmetry_equiv_pos_as_xyz
_cell_length_a                       17.2902
_cell_length_b                        7.6336
_cell_length_c                       10.0399
_cell_angle_alpha                   89.8997
_cell_angle_beta                    90.8622
_cell_angle_gamma                   90.2111

loop_
_atom_site_label
_atom_site_type_symbol
_atom_site_fract_x
_atom_site_fract_y
_atom_site_fract_z
_atom_site_charge
  Ge     Ge        0.052090000000021    0.000000000000000    0.372269999999958  0.0000
  Ge     Ge        0.438846601018317    0.010171118269414    0.895588510458391  0.0000
  Si     Si        0.451603586822737    0.011264521033353    0.384709373892083  0.0000
  Si     Si        0.944920861887436    0.003277478897871    0.626580978649233  0.0000
  Si     Si        0.551032989247843    0.006613801518942    0.644498599472894  0.0000
  Si     Si        0.554021004377427    0.004491688660848    0.140269108576660  0.0000
  Si     Si        0.941110179938112    0.006498782562175    0.113981900776910  0.0000
  Si     Si        0.049821202636946    0.000213927959408    0.875250501465579  0.0000
  Si     Si        0.168497447374350    0.291967337232452    0.297480276510480  0.0000
  Si     Si        0.338572902144521    0.718130703716270    0.281648895562916  0.0000
  Si     Si        0.835367469173340    0.299487296848719    0.727963758998069  0.0000
  Si     Si        0.661191741171153    0.711571185952006    0.719692246515774  0.0000
  Si     Si        0.839635111628886    0.701207488576107    0.727095044444340  0.0000
  Si     Si        0.657637316126148    0.309396757540489    0.719007755123787  0.0000
  Si     Si        0.160677816242451    0.696909469152293    0.298602818071189  0.0000
  Si     Si        0.346673624602158    0.312695223995732    0.281368206296846  0.0000
  Si     Si        0.654228859792495    0.311005626326860    0.031042792620886  0.0000
  Si     Si        0.838756697294095    0.698800633834503    0.038916480340194  0.0000
  Si     Si        0.336259619995803    0.318731825891480    0.971933219181069  0.0000
  Si     Si        0.147807499972385    0.694786763588813    0.989094977363631  0.0000
  Si     Si        0.325780782833420    0.717952487864969    0.971647009596240  0.0000
  Si     Si        0.157620192889384    0.293363108129564    0.988105819419770  0.0000
  Si     Si        0.660249142076469    0.711088079259090    0.031243998472592  0.0000
  Si     Si        0.832027396295311    0.301030583957673    0.040736771622818  0.0000
  O3     O3        0.118143809650676    0.169788474586683    0.390107572400702  0.0000
  O2     O2        0.394235821296424    0.846786875064344    0.364430516354426  0.0000
  O2     O2        0.890579712329416    0.170965555620711    0.648709327900961  0.0000
  O2     O2        0.608168591404851    0.839900118004151    0.630800646770031  0.0000
  O2     O2        0.896025503914327    0.825126574028844    0.644673229033534  0.0000
  O2     O2        0.601298995478500    0.185168430244719    0.632481644069801  0.0000
  O3     O3        0.105180386726160    0.809358746827876    0.389059651878225  0.0000
  O2     O2        0.405988944649856    0.193463757833486    0.364980344257442  0.0000
  O3     O3        0.976149548849793    0.009749109406820    0.479081460737076  0.0000
  O2     O2        0.482734528523907    0.003749683564395    0.535657545819364  0.0000
  O3     O3        0.009810838214586    0.015993860836734    0.217017793223806  0.0000
  O2     O2        0.526747132854991    0.002169739471495    0.292712273473348  0.0000
  O2     O2        0.020800010159792    0.005650863648680    0.722562417749178  0.0000
  O3     O3        0.512262264789845    0.995738193009134    0.786751039082787  0.0000
  O2     O2        0.596781625725491    0.188411839491728    0.111872513333933  0.0000
  O2     O2        0.893215815702941    0.824534225525587    0.127476651325729  0.0000
  O3     O3        0.389757400707669    0.205951886493949    0.879002330556477  0.0000
  O2     O2        0.090085364634599    0.813311376699794    0.902202090650555  0.0000
  O3     O3        0.370597819644766    0.845661401212594    0.875901427206619  0.0000
  O2     O2        0.109013171366937    0.160513101356561    0.897102938315951  0.0000
  O2     O2        0.611464253506481    0.842304558248780    0.119244596582150  0.0000
  O2     O2        0.881895052023287    0.168409397060538    0.130473033001982  0.0000
  O3     O3        0.478099378167132    0.984003219592262    0.052117183539665  0.0000
  O2     O2        0.975715851976810    0.021820143915308    0.966512127643202  0.0000
  O2     O2        0.145614800712926    0.492482453334593    0.324814079942983  0.0000
  O2     O2        0.364721110991570    0.517593427506155    0.307628941395460  0.0000
  O2     O2        0.858947839933363    0.499388777389094    0.694094413487827  0.0000
  O2     O2        0.638134379464570    0.511312801146268    0.686330588261709  0.0000
  O2     O2        0.259786582736557    0.267044255110300    0.326500731481837  0.0000
  O2     O2        0.250517280504759    0.743268440101304    0.329089936764232  0.0000
  O2     O2        0.746299582165783    0.267325949388184    0.683600270831123  0.0000
  O2     O2        0.751019054800400    0.743405812349200    0.686446234735479  0.0000
  O2     O2        0.150209015487172    0.241821765908742    0.143151261461616  0.0000
  O2     O2        0.343105380350340    0.766630542092393    0.126011500137447  0.0000
  O2     O2        0.843734524135858    0.263362271493160    0.884945795163893  0.0000
  O2     O2        0.647545158004641    0.752577388026702    0.875189333985919  0.0000
  O2     O2        0.852753997586010    0.736522612301880    0.883479491608367  0.0000
  O2     O2        0.643413333425286    0.270916672637511    0.874645673760159  0.0000
  O2     O2        0.140117306561545    0.743742289018148    0.144407196514172  0.0000
  O2     O2        0.355985179530084    0.268972706696824    0.125604941135026  0.0000
  O2     O2        0.632856030026488    0.512548196881792    0.060746523329286  0.0000
  O2     O2        0.859323618747637    0.498423983356730    0.075015653065585  0.0000
  O2     O2        0.354513256622881    0.521357129983374    0.944586673644954  0.0000
  O2     O2        0.126429462500996    0.490860687449130    0.965398807680536  0.0000
  O2     O2        0.742317602135199    0.274408187936848    0.076276830241537  0.0000
  O2     O2        0.749739556183498    0.735953572479387    0.071929202431968  0.0000
  O2     O2        0.246054922908949    0.279193652784637    0.943248192267389  0.0000
  O2     O2        0.234463077084060    0.732344297388089    0.941685134648809  0.0000
