data_c00030.vasp
_audit_creation_method             Generated by GULP
_audit_author_name                 Salvador R. G. Balestra
_symmetry_space_group_name_H-M     'P 1             '
_symmetry_Int_Tables_number        1

loop_
_symmetry_equiv_pos_site_id
_symmetry_equiv_pos_as_xyz
_cell_length_a                       17.3444
_cell_length_b                        7.6415
_cell_length_c                       10.1329
_cell_angle_alpha                   90.3176
_cell_angle_beta                    90.1505
_cell_angle_gamma                   89.8315

loop_
_atom_site_label
_atom_site_type_symbol
_atom_site_fract_x
_atom_site_fract_y
_atom_site_fract_z
_atom_site_charge
  Ge     Ge        0.052090000000021    0.000000000000000    0.372269999999958  0.0000
  Ge     Ge        0.453900133281283    0.009216363430180    0.370588945374637  0.0000
  Ge     Ge        0.447158736954139    0.009951875319035    0.885482232431411  0.0000
  Ge     Ge        0.654722441167767    0.336142590048262    0.018397451361954  0.0000
  Si     Si        0.950956147084824    0.004587753540854    0.635916851143991  0.0000
  Si     Si        0.555904467970479    0.012576125094127    0.631745841362013  0.0000
  Si     Si        0.560074875488452    0.023171810068142    0.126813037437314  0.0000
  Si     Si        0.943270207838317    0.011269591412372    0.124329686541555  0.0000
  Si     Si        0.055607217859725    0.005752355115901    0.888909773758905  0.0000
  Si     Si        0.170262615947359    0.289029459634722    0.268510139708827  0.0000
  Si     Si        0.336021478368732    0.721161713390693    0.265146922050296  0.0000
  Si     Si        0.836513525153442    0.298369477930338    0.707478901283946  0.0000
  Si     Si        0.669310813403676    0.720980612551898    0.697210263521912  0.0000
  Si     Si        0.846492804190357    0.699415460552358    0.701797827058805  0.0000
  Si     Si        0.659201451022611    0.319812808143099    0.701799796215496  0.0000
  Si     Si        0.158841560713004    0.694141478452361    0.273378155732411  0.0000
  Si     Si        0.347011939426617    0.312378624396181    0.261107220866768  0.0000
  Si     Si        0.847189381890958    0.703465965036298    0.010187265289562  0.0000
  Si     Si        0.343771394576668    0.320789185153093    0.955623453109897  0.0000
  Si     Si        0.154176905687942    0.694919414754410    0.966242660325235  0.0000
  Si     Si        0.332268039857329    0.722072971354502    0.959964236737491  0.0000
  Si     Si        0.165936813152855    0.296756184475114    0.960611970488371  0.0000
  Si     Si        0.669576295120702    0.738537711640027    0.007981042386342  0.0000
  Si     Si        0.835615027468945    0.306408088952565    0.017990332543981  0.0000
  O3     O3        0.118425510781143    0.164876468161139    0.354578298485133  0.0000
  O3     O3        0.389796256831032    0.838805006079449    0.355299188251718  0.0000
  O2     O2        0.889217214047244    0.163360461905234    0.626401087085180  0.0000
  O2     O2        0.616901108137357    0.852308968428116    0.611948200415183  0.0000
  O2     O2        0.904564928203947    0.821122973814316    0.619904965264306  0.0000
  O2     O2        0.602340037617462    0.195739436294926    0.617024775767149  0.0000
  O3     O3        0.099788938320235    0.802323134791930    0.360471285872391  0.0000
  O3     O3        0.407700413465000    0.206634862486845    0.346246123531714  0.0000
  O3     O3        0.016643233478346    0.019187248963464    0.529828001818516  0.0000
  O3     O3        0.485835024588417    0.004311339152827    0.531657611685504  0.0000
  O3     O3        0.972036708607404    0.015088679443751    0.272816114442784  0.0000
  O3     O3        0.536132794937700    0.991063731613860    0.276564102020650  0.0000
  O2     O2        0.991213967019014    0.016350912755366    0.778376671381340  0.0000
  O3     O3        0.521108571923257    0.993520202710392    0.777156800820720  0.0000
  O3     O3        0.588261232767886    0.221385452476552    0.107074949617852  0.0000
  O2     O2        0.902030936527109    0.826325855234261    0.096132033485608  0.0000
  O3     O3        0.400165239972680    0.208775380997528    0.865900894903964  0.0000
  O2     O2        0.098399834128464    0.817832592034307    0.880291168105262  0.0000
  O3     O3        0.378675311599374    0.847349731130776    0.865731967025887  0.0000
  O2     O2        0.117530359776604    0.161672316839062    0.871555995076074  0.0000
  O2     O2        0.631327329082075    0.899368142644352    0.084445010653743  0.0000
  O2     O2        0.885213075644664    0.172218919424461    0.103042119471223  0.0000
  O3     O3        0.484990377782502    0.982684573586888    0.041019483590973  0.0000
  O2     O2        0.017437143278751    0.031925777621315    0.031694473837020  0.0000
  O2     O2        0.146416682916449    0.489018235117244    0.298630586270640  0.0000
  O2     O2        0.360198975138059    0.518885265233564    0.281919830396000  0.0000
  O2     O2        0.865204458206888    0.495099630078063    0.676097950788590  0.0000
  O2     O2        0.641004641433490    0.522807875156601    0.669718892375277  0.0000
  O2     O2        0.260282396227815    0.260973353768480    0.303962738393945  0.0000
  O2     O2        0.246924721654260    0.746525162085596    0.307431210529098  0.0000
  O2     O2        0.747688352015523    0.277041748891912    0.663175524935890  0.0000
  O2     O2        0.758851945458165    0.740310415006647    0.656850698192754  0.0000
  O2     O2        0.157609534381982    0.246312330339643    0.113864757885504  0.0000
  O2     O2        0.345690056918779    0.778675607631700    0.112661714478790  0.0000
  O2     O2        0.840770400467983    0.258630024491337    0.863123842951619  0.0000
  O2     O2        0.661049902441378    0.766773566172788    0.851385171220635  0.0000
  O2     O2        0.857745368222061    0.745117648305790    0.855964375487414  0.0000
  O3     O3        0.644234061456658    0.281913476860119    0.854331009140850  0.0000
  O2     O2        0.141789690166874    0.739230290316503    0.120234993964661  0.0000
  O2     O2        0.358894644563669    0.261975876800306    0.107107875482900  0.0000
  O3     O3        0.632386201811014    0.554708776490548    0.044539993816213  0.0000
  O2     O2        0.868839973853825    0.502280621774311    0.040439373818445  0.0000
  O2     O2        0.362648779414005    0.524633451777273    0.937828331484523  0.0000
  O2     O2        0.133918717691556    0.492761628322642    0.935996920753546  0.0000
  O3     O3        0.748408682937158    0.296536407886565    0.066130468946873  0.0000
  O2     O2        0.758978718088796    0.737114522414969    0.050222811702507  0.0000
  O2     O2        0.254888180239154    0.284098353683101    0.917500688753339  0.0000
  O2     O2        0.241865338121559    0.733075715500425    0.925584710042137  0.0000
