data_c00017.vasp
_audit_creation_method             Generated by GULP
_audit_author_name                 Salvador R. G. Balestra
_symmetry_space_group_name_H-M     'P 1             '
_symmetry_Int_Tables_number        1

loop_
_symmetry_equiv_pos_site_id
_symmetry_equiv_pos_as_xyz
_cell_length_a                       17.2111
_cell_length_b                        7.6241
_cell_length_c                       10.2544
_cell_angle_alpha                   90.6387
_cell_angle_beta                    91.3074
_cell_angle_gamma                   90.1799

loop_
_atom_site_label
_atom_site_type_symbol
_atom_site_fract_x
_atom_site_fract_y
_atom_site_fract_z
_atom_site_charge
  Ge     Ge        0.052090000000021    0.000000000000000    0.372269999999958  0.0000
  Ge     Ge        0.456656369293672    0.026290592105967    0.393537763824437  0.0000
  Ge     Ge        0.566831893869378    0.020210574828432    0.147153831720990  0.0000
  Ge     Ge        0.174455673797979    0.281356676836451    0.285969302200922  0.0000
  Si     Si        0.948317569025115    0.999190519294464    0.625171842171619  0.0000
  Si     Si        0.551324984355707    0.011151569146227    0.662109437668997  0.0000
  Si     Si        0.955113777079064    0.014758072443866    0.104451851044496  0.0000
  Si     Si        0.447033007079691    0.014311602263549    0.909544628578776  0.0000
  Si     Si        0.061936628585550    0.001277493366346    0.864573672252355  0.0000
  Si     Si        0.334427260949403    0.739344826525970    0.284319577549182  0.0000
  Si     Si        0.836531241334798    0.294536649825100    0.725821082980119  0.0000
  Si     Si        0.668104218775781    0.722777593025371    0.730692582943287  0.0000
  Si     Si        0.847071144024108    0.695754052681161    0.723393858127345  0.0000
  Si     Si        0.658716606413416    0.317770265334458    0.732473995055815  0.0000
  Si     Si        0.154979515923915    0.694124912285573    0.281000994400892  0.0000
  Si     Si        0.355138457529089    0.335594668169680    0.288839547205399  0.0000
  Si     Si        0.662285403842458    0.333086129945234    0.036922558315003  0.0000
  Si     Si        0.857849627151751    0.696824164975602    0.028286737704102  0.0000
  Si     Si        0.350146122968917    0.330351087085717    0.982220588381669  0.0000
  Si     Si        0.154836069643568    0.691451682328224    0.978477105724488  0.0000
  Si     Si        0.334605908758938    0.727546957408360    0.980087529643346  0.0000
  Si     Si        0.171072525322620    0.287737388929870    0.976073632443034  0.0000
  Si     Si        0.678791257725192    0.732556414888645    0.033427259342965  0.0000
  Si     Si        0.840450984846869    0.301768058027149    0.032232999446476  0.0000
  O1     O1        0.124377134687909    0.153238526024971    0.389374384697654  0.0000
  O3     O3        0.381890287251300    0.877685202356045    0.369424235926373  0.0000
  O2     O2        0.889423698425591    0.159336680909384    0.648271276501185  0.0000
  O2     O2        0.612889961468619    0.851436218423107    0.647469983893240  0.0000
  O2     O2        0.902995671402783    0.815346420652713    0.639035488644200  0.0000
  O2     O2        0.598258193078814    0.195300706667823    0.651702790896707  0.0000
  O3     O3        0.095808953695138    0.797305646696202    0.370167022330337  0.0000
  O3     O3        0.422289644084152    0.235736545400835    0.365699874273813  0.0000
  O3     O3        0.978214036795971    0.011383018397432    0.480370225715455  0.0000
  O3     O3        0.484765625005317    0.002769962874489    0.554372271702950  0.0000
  O3     O3        0.014117273793226    0.049889724378831    0.219903969554583  0.0000
  O1     O1        0.536953103389038    0.994604117414588    0.302729403007300  0.0000
  O2     O2        0.024806881814709    0.007137627662640    0.719505040366026  0.0000
  O2     O2        0.510828453618179    0.995542853496944    0.800907203349406  0.0000
  O3     O3        0.603906168484253    0.228207244757233    0.123625093878320  0.0000
  O2     O2        0.917212609117380    0.819769809733341    0.110994779526950  0.0000
  O2     O2        0.408115930097709    0.207429407705773    0.901435759743047  0.0000
  O2     O2        0.099063685281438    0.808685543592634    0.887001730410739  0.0000
  O2     O2        0.379892115562293    0.865374074486683    0.891924104094455  0.0000
  O2     O2        0.126965696150922    0.153781390173628    0.876887842149528  0.0000
  O3     O3        0.639748574023801    0.870227990891973    0.125750937974649  0.0000
  O2     O2        0.886984291252424    0.159068524154987    0.114557906303790  0.0000
  O3     O3        0.486822836463048    0.981404286458670    0.048810324232635  0.0000
  O2     O2        0.995242440261680    0.041012961605198    0.966260160721603  0.0000
  O3     O3        0.141512741122796    0.492398472482315    0.304465123809499  0.0000
  O2     O2        0.364168418657822    0.543507291760514    0.314852609605547  0.0000
  O2     O2        0.862874803138659    0.491754863060099    0.690355161064297  0.0000
  O2     O2        0.640852788494954    0.521986566225387    0.705112478130705  0.0000
  O3     O3        0.271400313808789    0.269701915535828    0.331232818981742  0.0000
  O2     O2        0.243499191869034    0.752301979509976    0.317090849177253  0.0000
  O2     O2        0.745606836056378    0.270436381191682    0.686825343162439  0.0000
  O2     O2        0.757555995506589    0.743080487304801    0.689076474813039  0.0000
  O3     O3        0.162165553000381    0.223586684231299    0.122619193310457  0.0000
  O2     O2        0.346220815040029    0.779556923097057    0.131849367314027  0.0000
  O2     O2        0.846176499656820    0.260071994991954    0.878966612197706  0.0000
  O2     O2        0.662165232682197    0.778362128598351    0.882069057451089  0.0000
  O2     O2        0.867097388433880    0.733814365853629    0.875007132191101  0.0000
  O2     O2        0.649259238849635    0.277956022451119    0.885263239379871  0.0000
  O2     O2        0.139209553761774    0.743143514289748    0.128514210019263  0.0000
  O2     O2        0.363275864822072    0.292200798316633    0.134821641582279  0.0000
  O2     O2        0.645225721447433    0.538513135148838    0.058346371232740  0.0000
  O2     O2        0.876709913935629    0.494920187749805    0.061347016730323  0.0000
  O2     O2        0.368698272429071    0.533392580110042    0.952360720882960  0.0000
  O2     O2        0.137040953720293    0.484678466960702    0.956969217736365  0.0000
  O2     O2        0.751661723859199    0.293124471079956    0.076796127997993  0.0000
  O2     O2        0.770322176411722    0.739371462663461    0.066808226467224  0.0000
  O2     O2        0.261668119844975    0.287139242439086    0.939982112095120  0.0000
  O2     O2        0.243540153170254    0.732150338644944    0.942061879520315  0.0000
