data_c00064.vasp
_audit_creation_method             Generated by GULP
_audit_author_name                 Salvador R. G. Balestra
_symmetry_space_group_name_H-M     'P 1             '
_symmetry_Int_Tables_number        1

loop_
_symmetry_equiv_pos_site_id
_symmetry_equiv_pos_as_xyz
_cell_length_a                       17.2177
_cell_length_b                        7.6223
_cell_length_c                       10.2944
_cell_angle_alpha                   90.0848
_cell_angle_beta                    89.5019
_cell_angle_gamma                   90.2361

loop_
_atom_site_label
_atom_site_type_symbol
_atom_site_fract_x
_atom_site_fract_y
_atom_site_fract_z
_atom_site_charge
  Ge     Ge        0.052090000000021    0.000000000000000    0.372269999999958  0.0000
  Ge     Ge        0.452971059422420    0.017788617418532    0.361301345155790  0.0000
  Ge     Ge        0.655965466553244    0.338261979440416    0.031494269213166  0.0000
  Ge     Ge        0.172742924282144    0.297451522445822    0.965679078471237  0.0000
  Si     Si        0.950519579361361    0.006363457472855    0.636790184955301  0.0000
  Si     Si        0.553574640096080    0.016380946720566    0.624269130310602  0.0000
  Si     Si        0.558638995806775    0.020447795526467    0.107063065264565  0.0000
  Si     Si        0.949829981485597    0.021087931866535    0.117565841976439  0.0000
  Si     Si        0.448042405943498    0.026586846120520    0.869863954203681  0.0000
  Si     Si        0.060681711074470    0.011675641023375    0.880720113840733  0.0000
  Si     Si        0.172986166547093    0.284432397367349    0.271646068765856  0.0000
  Si     Si        0.333518938970135    0.734259640421551    0.280762825339959  0.0000
  Si     Si        0.836016726806317    0.300246236606325    0.716954324574407  0.0000
  Si     Si        0.667502435781611    0.723752232235357    0.716966141823538  0.0000
  Si     Si        0.845064001011065    0.702204226908572    0.707631212134806  0.0000
  Si     Si        0.657614052173645    0.319697192167749    0.721348981984095  0.0000
  Si     Si        0.154740115592467    0.692061401652325    0.275211569086687  0.0000
  Si     Si        0.350815381879252    0.331365328898675    0.274131436980597  0.0000
  Si     Si        0.852211185298469    0.709143061117195    0.011314574211692  0.0000
  Si     Si        0.354801778906661    0.340419909339328    0.970378475611974  0.0000
  Si     Si        0.156629591141102    0.703277422093980    0.976069717572972  0.0000
  Si     Si        0.337728633567176    0.739558719497652    0.979221192791786  0.0000
  Si     Si        0.674027526609732    0.741171265234847    0.022066631998436  0.0000
  Si     Si        0.838372569462400    0.311535363096209    0.022167393029150  0.0000
  O3     O3        0.123159875479468    0.159163879552076    0.362273093977415  0.0000
  O3     O3        0.379308832119787    0.863449925239756    0.373637142262538  0.0000
  O2     O2        0.889101367089623    0.166098425323603    0.636562753461966  0.0000
  O2     O2        0.612132259490491    0.853632597904905    0.639724172727801  0.0000
  O2     O2        0.902763618856563    0.823449300250955    0.622600044926412  0.0000
  O2     O2        0.599788939405004    0.199500642223599    0.638071493673323  0.0000
  O3     O3        0.094451681524696    0.794917286895893    0.363787560631867  0.0000
  O3     O3        0.411598085625547    0.223375317472271    0.356517528553774  0.0000
  O3     O3        0.011753094484551    0.026697460684342    0.523657708044609  0.0000
  O3     O3        0.519067990108930    0.005661871245876    0.482723544569412  0.0000
  O3     O3        0.978393632586869    0.024020216379178    0.263194814671565  0.0000
  O3     O3        0.503319022254812    0.965061071236721    0.222034030695883  0.0000
  O2     O2        0.996871138303037    0.007730445019006    0.771105000257889  0.0000
  O2     O2        0.481331403774751    0.006053414922362    0.724929755840052  0.0000
  O3     O3        0.590233272614469    0.217936546937008    0.121872534367620  0.0000
  O2     O2        0.911650983670770    0.831869750083303    0.087558617971842  0.0000
  O2     O2        0.415719699945241    0.224260464382983    0.888057389478647  0.0000
  O2     O2        0.104217268180429    0.824779638492037    0.885451611365274  0.0000
  O2     O2        0.379337086937812    0.884226051119742    0.889643435766205  0.0000
  O3     O3        0.124437284895407    0.161954886784874    0.859875909521248  0.0000
  O2     O2        0.635116862337151    0.898025775111103    0.101959415553183  0.0000
  O2     O2        0.887893684804739    0.176270833290991    0.104576265234939  0.0000
  O2     O2        0.515774405713995    0.990049366451016    0.970602342903930  0.0000
  O2     O2        0.021224004463077    0.057599540626110    0.019710465486268  0.0000
  O2     O2        0.141962592590255    0.483776744394838    0.284358809335521  0.0000
  O2     O2        0.364647594526438    0.536930720956441    0.299658887752327  0.0000
  O2     O2        0.864174013443943    0.497844278678369    0.683018033961922  0.0000
  O2     O2        0.638931975817774    0.524126181978021    0.694459670654110  0.0000
  O2     O2        0.263113303344084    0.277510514720153    0.313956882447397  0.0000
  O2     O2        0.242368486017541    0.741666179870651    0.316322051169089  0.0000
  O2     O2        0.746148845777872    0.277575438080408    0.677625028541958  0.0000
  O2     O2        0.756480041495159    0.742930812522591    0.667146457772930  0.0000
  O3     O3        0.165688411867443    0.223178011103200    0.123332498609554  0.0000
  O2     O2        0.346512905821392    0.792130159605134    0.130359079222106  0.0000
  O2     O2        0.842303372190268    0.261626999528614    0.869963175565422  0.0000
  O2     O2        0.664761857886022    0.771097685798291    0.868345777710461  0.0000
  O2     O2        0.858017988204826    0.749635661865163    0.858354834756180  0.0000
  O3     O3        0.644636156337916    0.277102431901111    0.871378800717417  0.0000
  O2     O2        0.141138543961572    0.754467982717944    0.126734013537742  0.0000
  O2     O2        0.363073386868988    0.286671221588343    0.121508099347140  0.0000
  O3     O3        0.635658957065844    0.556391534724459    0.058262650212602  0.0000
  O2     O2        0.873768732683267    0.507407525198716    0.040393618467746  0.0000
  O2     O2        0.374747759965760    0.547427164231997    0.952980356610039  0.0000
  O3     O3        0.134071928257607    0.504504978652121    0.950445658643655  0.0000
  O3     O3        0.751176519624804    0.303302647863690    0.073802642845204  0.0000
  O2     O2        0.764568113647468    0.743232003208544    0.059905408694882  0.0000
  O3     O3        0.269292560538195    0.302509742489111    0.920550941124396  0.0000
  O2     O2        0.247363052396405    0.734497600041556    0.941797882563425  0.0000
