data_c00071.vasp
_audit_creation_method             Generated by GULP
_audit_author_name                 Salvador R. G. Balestra
_symmetry_space_group_name_H-M     'P 1             '
_symmetry_Int_Tables_number        1

loop_
_symmetry_equiv_pos_site_id
_symmetry_equiv_pos_as_xyz
_cell_length_a                       17.3378
_cell_length_b                        7.6282
_cell_length_c                       10.1558
_cell_angle_alpha                   89.7431
_cell_angle_beta                    91.6631
_cell_angle_gamma                   89.8274

loop_
_atom_site_label
_atom_site_type_symbol
_atom_site_fract_x
_atom_site_fract_y
_atom_site_fract_z
_atom_site_charge
  Ge     Ge        0.052090000000021    0.000000000000000    0.372269999999958  0.0000
  Ge     Ge        0.942450326865285    0.002089403350595    0.629837964953667  0.0000
  Ge     Ge        0.558067137394652    0.016369280171114    0.127862835239735  0.0000
  Ge     Ge        0.437136545604260    0.014252900459841    0.880010198505992  0.0000
  Si     Si        0.450308893869634    0.011032871583039    0.367329234480300  0.0000
  Si     Si        0.544764333744484    0.016158486187522    0.629815997734141  0.0000
  Si     Si        0.939046446326881    0.001382008976215    0.125684638053771  0.0000
  Si     Si        0.046572134068378    0.012042942838911    0.892797697015629  0.0000
  Si     Si        0.169207692178626    0.291322658908372    0.268838346611536  0.0000
  Si     Si        0.336123917068745    0.721722273444338    0.261398723508785  0.0000
  Si     Si        0.824120763131432    0.289397066962818    0.701393700532309  0.0000
  Si     Si        0.659480761149974    0.727482827687769    0.704191628752573  0.0000
  Si     Si        0.837769635832784    0.692710613834458    0.698242623308680  0.0000
  Si     Si        0.646238273318404    0.324122332697697    0.707795080286231  0.0000
  Si     Si        0.159003772584228    0.697001279365527    0.273870755870733  0.0000
  Si     Si        0.345756633802226    0.314885311740012    0.258092536317734  0.0000
  Si     Si        0.652261115477260    0.330318636732168    0.014047966504188  0.0000
  Si     Si        0.847125718829193    0.691730170399122    0.004385929020009  0.0000
  Si     Si        0.336912609565662    0.328544797875666    0.950976404630326  0.0000
  Si     Si        0.145740328606331    0.698641590364440    0.967477917084317  0.0000
  Si     Si        0.323250996669610    0.727155226644620    0.954749341755602  0.0000
  Si     Si        0.159485662926111    0.300460878236916    0.961737962756151  0.0000
  Si     Si        0.669008780301229    0.730228655448510    0.010515132061175  0.0000
  Si     Si        0.830670289270862    0.291648520979022    0.008360436290328  0.0000
  O3     O3        0.117067352714539    0.167993374622329    0.353824596733204  0.0000
  O2     O2        0.392201419632412    0.848761967317815    0.344182850972900  0.0000
  O3     O3        0.871883640720841    0.163481491132915    0.611010591213750  0.0000
  O2     O2        0.608025325685591    0.860358047577013    0.614917973255018  0.0000
  O3     O3        0.894096310375951    0.804359928605985    0.610936483733031  0.0000
  O2     O2        0.587055750267290    0.205185613743294    0.622609659893597  0.0000
  O3     O3        0.102219093221732    0.804887175539901    0.362109273188307  0.0000
  O2     O2        0.407436143447450    0.195820204439291    0.337420051017819  0.0000
  O1     O1        0.017204779780957    0.017249238752073    0.527546747828193  0.0000
  O2     O2        0.476874829667252    0.007124254515352    0.520265894974595  0.0000
  O3     O3        0.968552052956412    0.006964342777689    0.275166718711013  0.0000
  O3     O3        0.527541746342517    0.997186035870626    0.287093489237082  0.0000
  O3     O3        0.979362909462374    0.030069151500071    0.787537936237190  0.0000
  O3     O3        0.507346079311488    0.988070652882127    0.769148360449290  0.0000
  O3     O3        0.595778158268900    0.223434259618146    0.103099605040868  0.0000
  O2     O2        0.904481719014328    0.809281898097048    0.093004012226210  0.0000
  O3     O3        0.392621691254711    0.217136193330859    0.863247577230364  0.0000
  O2     O2        0.087620407046603    0.821300406180762    0.882310830682965  0.0000
  O3     O3        0.364753450833627    0.859545086638223    0.861201095621330  0.0000
  O2     O2        0.110126303850922    0.164639846680918    0.874289491654117  0.0000
  O3     O3        0.630432601639675    0.865455299925537    0.105063306424824  0.0000
  O2     O2        0.875390871212829    0.152965349665541    0.101100940579074  0.0000
  O1     O1        0.478906981056341    0.978502279860481    0.031361967807654  0.0000
  O2     O2        0.013073782357464    0.037216998567405    0.038154728913810  0.0000
  O2     O2        0.146053924629837    0.491402019830248    0.298884103524458  0.0000
  O2     O2        0.362392672888796    0.520081968830101    0.285506841215840  0.0000
  O2     O2        0.850547753557553    0.487796271819210    0.672170122402962  0.0000
  O2     O2        0.630471905843425    0.529065275550040    0.677857186322759  0.0000
  O2     O2        0.260132349806474    0.265013568807723    0.303731080093167  0.0000
  O2     O2        0.248258641328895    0.746585753697162    0.306782960118102  0.0000
  O2     O2        0.732800614511256    0.272861215360723    0.669769512274188  0.0000
  O2     O2        0.748661636378778    0.744809531909551    0.666211850949890  0.0000
  O2     O2        0.155269853906316    0.248210416050599    0.114924446478583  0.0000
  O2     O2        0.340636282170663    0.773513691850087    0.108129843157083  0.0000
  O2     O2        0.839605913142996    0.241689114288230    0.855651068219267  0.0000
  O2     O2        0.651030875273929    0.778207768630945    0.857410697175724  0.0000
  O2     O2        0.858981429069503    0.736481952417865    0.851193619995330  0.0000
  O2     O2        0.632937219233888    0.282540218241762    0.861459956461161  0.0000
  O2     O2        0.138193994663879    0.743937530999669    0.121454927331830  0.0000
  O2     O2        0.354502029152194    0.274595331208810    0.103608806429019  0.0000
  O2     O2        0.637006309858949    0.535624181707586    0.038031344594428  0.0000
  O2     O2        0.864710800052562    0.486598840963574    0.033718643301824  0.0000
  O2     O2        0.354801919859593    0.532105015886284    0.927889583664534  0.0000
  O2     O2        0.125102977426899    0.495987923849867    0.939135775950085  0.0000
  O2     O2        0.741535620477330    0.284219988962201    0.047029557304756  0.0000
  O2     O2        0.760187990119810    0.735875210057334    0.041585199080569  0.0000
  O2     O2        0.247247640679304    0.290438403328749    0.915633980545732  0.0000
  O2     O2        0.232075751837275    0.736476274848664    0.923507495045176  0.0000
