data_c00057.vasp
_audit_creation_method             Generated by GULP
_audit_author_name                 Salvador R. G. Balestra
_symmetry_space_group_name_H-M     'P 1             '
_symmetry_Int_Tables_number        1

loop_
_symmetry_equiv_pos_site_id
_symmetry_equiv_pos_as_xyz
_cell_length_a                       17.3183
_cell_length_b                        7.6547
_cell_length_c                       10.2151
_cell_angle_alpha                   89.1230
_cell_angle_beta                    90.4186
_cell_angle_gamma                   89.7680

loop_
_atom_site_label
_atom_site_type_symbol
_atom_site_fract_x
_atom_site_fract_y
_atom_site_fract_z
_atom_site_charge
  Ge     Ge        0.052090000000021    0.000000000000000    0.372269999999958  0.0000
  Ge     Ge        0.453233757581535    0.985513006227875    0.369752916876939  0.0000
  Ge     Ge        0.843557815116816    0.309567277998825    0.704034521043318  0.0000
  Ge     Ge        0.153715078713987    0.325455559431419    0.959922701236078  0.0000
  Si     Si        0.950685238296547    0.004068319874843    0.632326044583923  0.0000
  Si     Si        0.548369858140677    0.005964657481639    0.638735118817562  0.0000
  Si     Si        0.561239630204170    0.997129801346204    0.124562008702056  0.0000
  Si     Si        0.941504451894815    0.000141148771628    0.125140331745281  0.0000
  Si     Si        0.445060468334959    0.006175556722189    0.891407599257853  0.0000
  Si     Si        0.052545417171476    0.017360329406797    0.886237284082213  0.0000
  Si     Si        0.157047926235421    0.305649721128324    0.269722604814726  0.0000
  Si     Si        0.346856781692062    0.682768380177971    0.273626494948541  0.0000
  Si     Si        0.656533416605771    0.701263524262847    0.708973872087920  0.0000
  Si     Si        0.834844827092071    0.718245458305081    0.707195759374915  0.0000
  Si     Si        0.661677134329571    0.299384551257773    0.705749400024704  0.0000
  Si     Si        0.169284726613762    0.712489167637440    0.273724930881084  0.0000
  Si     Si        0.333355675884042    0.280227448697639    0.264674311215597  0.0000
  Si     Si        0.665571393310098    0.294712321896824    0.013576149137304  0.0000
  Si     Si        0.836207313017530    0.706709981162189    0.013990605142905  0.0000
  Si     Si        0.334127912020614    0.301442423705824    0.957430259746908  0.0000
  Si     Si        0.165439730024092    0.730369686509794    0.970467710815507  0.0000
  Si     Si        0.344520772902231    0.698113042408136    0.969621882794162  0.0000
  Si     Si        0.658333318906118    0.691862349934244    0.015114824596033  0.0000
  Si     Si        0.843919841403639    0.306546276059602    0.016035519796713  0.0000
  O3     O3        0.097996770155335    0.198432909108004    0.357749856830907  0.0000
  O3     O3        0.407386625830263    0.786485951293050    0.359087323242380  0.0000
  O3     O3        0.907927957249284    0.189503232489712    0.615233289362987  0.0000
  O2     O2        0.599956233521385    0.829513737832887    0.627535596763233  0.0000
  O2     O2        0.883038380186048    0.859022934765518    0.624379304729958  0.0000
  O2     O2        0.604432140214360    0.173941003335980    0.626953320366575  0.0000
  O3     O3        0.118088083505974    0.831753013465014    0.363451039434197  0.0000
  O3     O3        0.386684141258978    0.148970704813135    0.343818328031652  0.0000
  O3     O3        0.016158333247148    0.980090850477180    0.527924922369902  0.0000
  O3     O3        0.484506141387409    0.009708790924646    0.528259820816213  0.0000
  O3     O3        0.973209205460329    0.982326767118359    0.270509574301619  0.0000
  O3     O3        0.533473391001079    0.000203238857678    0.272066300765290  0.0000
  O2     O2        0.990719287713051    0.982438506288151    0.774408422955082  0.0000
  O2     O2        0.507150497306466    0.010654354129820    0.778526350005802  0.0000
  O2     O2        0.618369515564791    0.158744540023743    0.100497896037163  0.0000
  O2     O2        0.884934954715357    0.837529354412234    0.101111493468447  0.0000
  O2     O2        0.387705805116081    0.171819741739976    0.875449469906417  0.0000
  O2     O2        0.122805565302654    0.877357755695535    0.882656503429419  0.0000
  O2     O2        0.396855416412361    0.826510706388181    0.882548710397358  0.0000
  O3     O3        0.089101272550594    0.207612866941931    0.868125805613517  0.0000
  O2     O2        0.604014354404230    0.813369853821316    0.100537389626282  0.0000
  O2     O2        0.896536347063758    0.184493996916256    0.109511773404348  0.0000
  O2     O2        0.486366354720208    0.017454960159170    0.032150817767469  0.0000
  O2     O2        0.013254487482126    0.994988466654958    0.027400764120792  0.0000
  O2     O2        0.142256988366602    0.511988894039714    0.286192642405998  0.0000
  O2     O2        0.362041481907952    0.476678271344457    0.291480084917099  0.0000
  O3     O3        0.864082844861436    0.526538776386976    0.675293025390038  0.0000
  O2     O2        0.636318266463388    0.500572312872268    0.678312564230426  0.0000
  O2     O2        0.245079905956799    0.258645870305105    0.311807848070069  0.0000
  O2     O2        0.259167467561987    0.728426194401240    0.314645941711727  0.0000
  O3     O3        0.748737251355530    0.270610353102885    0.660478907680301  0.0000
  O2     O2        0.744660193775540    0.738333989658007    0.667899699830522  0.0000
  O3     O3        0.144032952044097    0.254366206757125    0.119734134007055  0.0000
  O2     O2        0.358592561206692    0.740392149610872    0.121935913356674  0.0000
  O3     O3        0.857870642522208    0.255615200787037    0.867273835104010  0.0000
  O2     O2        0.646214632837829    0.739002574932061    0.862540561080827  0.0000
  O2     O2        0.844480312133823    0.755486849149707    0.861507333450929  0.0000
  O2     O2        0.656664225234128    0.254245801222595    0.860450430634958  0.0000
  O2     O2        0.157807381521017    0.776902103122512    0.123501279770481  0.0000
  O2     O2        0.335642750004096    0.243335678120652    0.109877217041868  0.0000
  O2     O2        0.635350371521994    0.490376041023950    0.042574103439797  0.0000
  O2     O2        0.866660143469716    0.508876293880365    0.038605233800740  0.0000
  O2     O2        0.367166041619928    0.498186870032388    0.940005028471613  0.0000
  O3     O3        0.129329129506562    0.542999191196997    0.943022979428925  0.0000
  O2     O2        0.754918652537348    0.277607461435694    0.054043675834484  0.0000
  O2     O2        0.747081221629391    0.722441046938715    0.055927588951638  0.0000
  O3     O3        0.247053469455878    0.294086021163464    0.906461722247361  0.0000
  O2     O2        0.255296707083521    0.728299179225221    0.931149961015686  0.0000
