data_c00031.vasp
_audit_creation_method             Generated by GULP
_audit_author_name                 Salvador R. G. Balestra
_symmetry_space_group_name_H-M     'P 1             '
_symmetry_Int_Tables_number        1

loop_
_symmetry_equiv_pos_site_id
_symmetry_equiv_pos_as_xyz
_cell_length_a                       17.3351
_cell_length_b                        7.6408
_cell_length_c                       10.1365
_cell_angle_alpha                   89.5258
_cell_angle_beta                    90.4816
_cell_angle_gamma                   89.9283

loop_
_atom_site_label
_atom_site_type_symbol
_atom_site_fract_x
_atom_site_fract_y
_atom_site_fract_z
_atom_site_charge
  Ge     Ge        0.052090000000021    0.000000000000000    0.372269999999958  0.0000
  Ge     Ge        0.453789806792069    0.010982757001038    0.366332916534610  0.0000
  Ge     Ge        0.443759400164404    0.008420765843516    0.883275284817052  0.0000
  Ge     Ge        0.847407268245595    0.673899589274649    0.020628142587615  0.0000
  Si     Si        0.948961902669249    0.000699463796942    0.632413975700638  0.0000
  Si     Si        0.553732375380346    0.007869455238882    0.631223133492659  0.0000
  Si     Si        0.558549918853347    0.996763569936882    0.121117271023386  0.0000
  Si     Si        0.941901767151563    0.986103550647704    0.126598737400244  0.0000
  Si     Si        0.052007242464994    0.001906966144204    0.887540985756949  0.0000
  Si     Si        0.169575729036950    0.289392200281053    0.270497026361840  0.0000
  Si     Si        0.334555068985950    0.723851939563786    0.258972838422397  0.0000
  Si     Si        0.835311042465313    0.291413448504959    0.699113908805205  0.0000
  Si     Si        0.667716021780947    0.713533105745346    0.701994527503547  0.0000
  Si     Si        0.845280765574183    0.693735665088931    0.704950877562533  0.0000
  Si     Si        0.658213490062049    0.313424152681557    0.694715195978419  0.0000
  Si     Si        0.157772094014661    0.694479429369994    0.269187111140025  0.0000
  Si     Si        0.346682832358755    0.315376750470594    0.261102460885794  0.0000
  Si     Si        0.654763418609934    0.305611810927260    0.003553466210562  0.0000
  Si     Si        0.341219746337540    0.318876062570923    0.955955123465131  0.0000
  Si     Si        0.151177728703621    0.690690530058594    0.961856112123139  0.0000
  Si     Si        0.328704661081883    0.719857961389552    0.953233005080130  0.0000
  Si     Si        0.162901125233917    0.292314172023177    0.963253218499655  0.0000
  Si     Si        0.666369216539545    0.702491078507897    0.012816519159077  0.0000
  Si     Si        0.832275133962104    0.270608285673616    0.009144156991289  0.0000
  O3     O3        0.119019601495377    0.165058114306172    0.359974324197404  0.0000
  O3     O3        0.388818033666284    0.843041357260905    0.346115675318462  0.0000
  O2     O2        0.888118268524451    0.161134811345622    0.615069812323862  0.0000
  O2     O2        0.615259604779192    0.848595786459544    0.619264437688022  0.0000
  O2     O2        0.901976559260182    0.818040611532103    0.620814082655766  0.0000
  O2     O2        0.600116624328775    0.191488501821636    0.611946796707596  0.0000
  O3     O3        0.098258236183393    0.801950528522304    0.354042642296041  0.0000
  O3     O3        0.407610197450854    0.209950398078279    0.347717369763680  0.0000
  O3     O3        0.016272915133605    0.009070533231078    0.529212383662264  0.0000
  O3     O3        0.485219075127267    0.995471901730837    0.527964134065215  0.0000
  O3     O3        0.972311367099100    0.024024560010737    0.271539672323877  0.0000
  O3     O3        0.536027514034646    0.996438748168917    0.273184495114682  0.0000
  O2     O2        0.988276901662750    0.019059217590564    0.775574059151863  0.0000
  O3     O3        0.517904873303471    0.994918305073440    0.775914035372943  0.0000
  O2     O2        0.597248311140308    0.182000858931499    0.082590282160546  0.0000
  O3     O3        0.911587064939778    0.788702003307696    0.115756794208888  0.0000
  O3     O3        0.396372472582248    0.207053379686821    0.865742206995894  0.0000
  O2     O2        0.093776574918873    0.812987241134490    0.876551236062644  0.0000
  O3     O3        0.375219144875817    0.846354605946490    0.859172832351554  0.0000
  O2     O2        0.114722732615634    0.157180290304281    0.874844890780813  0.0000
  O2     O2        0.615798161557548    0.836068178765585    0.095078474539402  0.0000
  O2     O2        0.870103120775982    0.111500907946397    0.089349562748956  0.0000
  O3     O3        0.480186749287806    0.975336805881058    0.040007590075781  0.0000
  O2     O2        0.012637726996686    0.022086292570206    0.028933485273383  0.0000
  O2     O2        0.145429743024533    0.489306907445588    0.297297968622498  0.0000
  O2     O2        0.359486544260634    0.522062830088688    0.278983505209429  0.0000
  O2     O2        0.863769250277158    0.490330724464698    0.675412256734903  0.0000
  O2     O2        0.639224056734522    0.517337125869302    0.667573072972430  0.0000
  O2     O2        0.259987101006133    0.263472250368999    0.304132931586346  0.0000
  O2     O2        0.245774836265954    0.748195411710339    0.303393274540200  0.0000
  O2     O2        0.746205820726452    0.273039740096755    0.653451910716583  0.0000
  O2     O2        0.757002192770627    0.735658640843407    0.662353282308696  0.0000
  O2     O2        0.154393979753982    0.242894454419252    0.117196183371193  0.0000
  O2     O2        0.341505775652561    0.778182830374925    0.105172531690095  0.0000
  O2     O2        0.841432251403920    0.241184946460498    0.853007472558635  0.0000
  O2     O2        0.661545033451703    0.749943824193197    0.857730603853643  0.0000
  O3     O3        0.858731509627507    0.733040329620181    0.857781164562519  0.0000
  O2     O2        0.645782363877307    0.268390949608485    0.848472615802108  0.0000
  O2     O2        0.140732091209429    0.737262506163683    0.115250811237614  0.0000
  O2     O2        0.358193834032618    0.262998221262574    0.108066673472282  0.0000
  O2     O2        0.633037564924707    0.506323844380105    0.034568470016380  0.0000
  O3     O3        0.868995054761576    0.455102470017899    0.046052569917900  0.0000
  O2     O2        0.359287538370276    0.522750340322777    0.933884361883165  0.0000
  O2     O2        0.130379942812551    0.488038319214614    0.936078780901299  0.0000
  O2     O2        0.742430231768694    0.269908428337006    0.048160151456434  0.0000
  O3     O3        0.753145436331957    0.712430795081105    0.064183887127560  0.0000
  O2     O2        0.251830640433582    0.280289868451281    0.921255375333867  0.0000
  O2     O2        0.238180059739973    0.728833208174631    0.917348334835668  0.0000
