data_c00006.vasp
_audit_creation_method             Generated by GULP
_audit_author_name                 Salvador R. G. Balestra
_symmetry_space_group_name_H-M     'P 1             '
_symmetry_Int_Tables_number        1

loop_
_symmetry_equiv_pos_site_id
_symmetry_equiv_pos_as_xyz
_cell_length_a                       17.3401
_cell_length_b                        7.6434
_cell_length_c                       10.1981
_cell_angle_alpha                   90.7834
_cell_angle_beta                    90.0415
_cell_angle_gamma                   88.9953

loop_
_atom_site_label
_atom_site_type_symbol
_atom_site_fract_x
_atom_site_fract_y
_atom_site_fract_z
_atom_site_charge
  Ge     Ge        0.052090000000021    0.000000000000000    0.372269999999958  0.0000
  Ge     Ge        0.455115728541647    0.969823977197783    0.352649370845937  0.0000
  Ge     Ge        0.953369313047376    0.957624863091701    0.640426300313850  0.0000
  Ge     Ge        0.154063087564596    0.312965212353216    0.280514734591917  0.0000
  Si     Si        0.552712286118856    0.969949987730877    0.617882351564629  0.0000
  Si     Si        0.561702885935541    0.979345131044787    0.095041444617966  0.0000
  Si     Si        0.947799953353059    0.965538543561584    0.124738633828021  0.0000
  Si     Si        0.447888766366838    0.953558166985171    0.860106126388844  0.0000
  Si     Si        0.062484761394269    0.974885830479279    0.895025687279533  0.0000
  Si     Si        0.352107534260325    0.661804218400225    0.269062347203158  0.0000
  Si     Si        0.838963709252938    0.261088581366410    0.704803857577421  0.0000
  Si     Si        0.660746687196724    0.668257447389415    0.715128079026949  0.0000
  Si     Si        0.838038016706005    0.666870663667913    0.706249782723195  0.0000
  Si     Si        0.662030466826057    0.267117113392207    0.714570505312612  0.0000
  Si     Si        0.175254659675258    0.713728955197671    0.266574461706639  0.0000
  Si     Si        0.335386995904585    0.259372627574735    0.279655313925247  0.0000
  Si     Si        0.668798907909186    0.274318433614801    0.022436083032876  0.0000
  Si     Si        0.844139857321353    0.670558752394332    0.010871260266956  0.0000
  Si     Si        0.338370211645787    0.247151342182371    0.973682835089465  0.0000
  Si     Si        0.176212436260270    0.680357975757670    0.955917013729048  0.0000
  Si     Si        0.353210509454875    0.648604808116816    0.963901020998914  0.0000
  Si     Si        0.160124376354361    0.287102097840608    0.965335917482409  0.0000
  Si     Si        0.666190759048600    0.670824198810554    0.022884240856414  0.0000
  Si     Si        0.846000824676481    0.267537874891952    0.010151016931821  0.0000
  O1     O1        0.084310280228563    0.209808633840100    0.365635106905769  0.0000
  O3     O3        0.411014452614289    0.769431613215529    0.355438591334466  0.0000
  O3     O3        0.895382606595565    0.142588044101357    0.618495678629854  0.0000
  O2     O2        0.603757595113262    0.794391912226631    0.636501745863630  0.0000
  O3     O3        0.893287694204072    0.780318087738767    0.620135211954405  0.0000
  O2     O2        0.603748783270063    0.141190139325273    0.640725238611144  0.0000
  O3     O3        0.133257572054816    0.878217786421484    0.330224965234442  0.0000
  O3     O3        0.386137071047310    0.133994574125587    0.369444773543695  0.0000
  O1     O1        0.024957620443884    0.949973750845110    0.527824613593787  0.0000
  O3     O3        0.524809373062224    0.977005566815194    0.470383846305267  0.0000
  O3     O3        0.972019512255973    0.964376450706237    0.274872895242096  0.0000
  O3     O3        0.498870191770736    0.999503344556988    0.204222804222772  0.0000
  O3     O3        0.994765186996091    0.957389673048824    0.793286257777432  0.0000
  O2     O2        0.477410614905255    0.968441251172824    0.711227741240896  0.0000
  O2     O2        0.618035908756038    0.144913295321524    0.106303835141851  0.0000
  O2     O2        0.897058702080394    0.794793584202501    0.097855214454550  0.0000
  O2     O2        0.384623315154405    0.106270565048467    0.885846566624816  0.0000
  O2     O2        0.126614871428976    0.820340892310628    0.874041898261338  0.0000
  O2     O2        0.410934129497471    0.762100446394391    0.877475669818867  0.0000
  O2     O2        0.104883040574592    0.160753942419422    0.880631195534770  0.0000
  O2     O2        0.613598807112740    0.802258378264452    0.109704435711474  0.0000
  O2     O2        0.900883812487016    0.144576086902357    0.095611878577259  0.0000
  O2     O2        0.520937863877199    0.977892682041770    0.953497338599828  0.0000
  O2     O2        0.026253580096019    0.957923031113081    0.040314969542062  0.0000
  O3     O3        0.139883269981943    0.533358077190070    0.313732752730554  0.0000
  O2     O2        0.364713946978691    0.457400662990837    0.295608035876881  0.0000
  O2     O2        0.857246013290440    0.463090091643418    0.680459971696199  0.0000
  O2     O2        0.640226370088375    0.467713819463236    0.680609998175998  0.0000
  O3     O3        0.247069444000052    0.250570112342979    0.322087407492293  0.0000
  O2     O2        0.265135158876765    0.719535574975142    0.306741081847322  0.0000
  O2     O2        0.749737393518789    0.224228259458762    0.669651095264229  0.0000
  O2     O2        0.748420770500483    0.705892491310290    0.673001233806358  0.0000
  O3     O3        0.141665577741953    0.262102324278057    0.116453645542129  0.0000
  O2     O2        0.365837797920629    0.703639370309283    0.115349959332324  0.0000
  O2     O2        0.854527850579557    0.214322086183685    0.857446775257304  0.0000
  O2     O2        0.651039353288809    0.705162895957121    0.869745969723594  0.0000
  O2     O2        0.853517869471249    0.718145398408053    0.858666693353802  0.0000
  O2     O2        0.655504701398675    0.237373564927027    0.869167106300114  0.0000
  O2     O2        0.167745710501980    0.717916864049930    0.109517800663185  0.0000
  O2     O2        0.345863992315090    0.200394749237936    0.126746695200585  0.0000
  O2     O2        0.643810821222068    0.473453611019927    0.059005254334673  0.0000
  O2     O2        0.870031133224983    0.468990752437387    0.033449256351148  0.0000
  O2     O2        0.370702996186668    0.441062177579823    0.945411594879598  0.0000
  O2     O2        0.144126342723372    0.487424864606987    0.922205830787974  0.0000
  O2     O2        0.758416138042484    0.242503048514426    0.057111135971184  0.0000
  O2     O2        0.755824126412558    0.701057138405616    0.055405708251561  0.0000
  O2     O2        0.248994028726880    0.237838033797856    0.933736187213581  0.0000
  O2     O2        0.266027439387204    0.691387262772815    0.916949269891004  0.0000
