data_c00096.vasp
_audit_creation_method             Generated by GULP
_audit_author_name                 Salvador R. G. Balestra
_symmetry_space_group_name_H-M     'P 1             '
_symmetry_Int_Tables_number        1

loop_
_symmetry_equiv_pos_site_id
_symmetry_equiv_pos_as_xyz
_cell_length_a                       17.2853
_cell_length_b                        7.6585
_cell_length_c                       10.2084
_cell_angle_alpha                   91.3727
_cell_angle_beta                    90.3079
_cell_angle_gamma                   89.2065

loop_
_atom_site_label
_atom_site_type_symbol
_atom_site_fract_x
_atom_site_fract_y
_atom_site_fract_z
_atom_site_charge
  Ge     Ge        0.052090000000021    0.000000000000000    0.372269999999958  0.0000
  Ge     Ge        0.951849609461840    0.954554897386429    0.638027662390409  0.0000
  Ge     Ge        0.155333880193171    0.312647670245155    0.283264636612210  0.0000
  Ge     Ge        0.341679117710354    0.268878759130684    0.279061543453280  0.0000
  Si     Si        0.457345359267515    0.975545787887713    0.353728666590297  0.0000
  Si     Si        0.551697146201678    0.962013482938919    0.615473809787116  0.0000
  Si     Si        0.559831969109178    0.978249216833622    0.098742167519158  0.0000
  Si     Si        0.945090724865140    0.966536845557442    0.125374713154671  0.0000
  Si     Si        0.444802476835245    0.954520978939471    0.858781233222565  0.0000
  Si     Si        0.059342772523032    0.972226048316669    0.895223763130001  0.0000
  Si     Si        0.352664905013510    0.672724683823407    0.262194427092216  0.0000
  Si     Si        0.838142276714092    0.257849048738415    0.704048951948159  0.0000
  Si     Si        0.659149769987972    0.662717511353974    0.711934564823661  0.0000
  Si     Si        0.837582463526135    0.662034583912831    0.705948362344386  0.0000
  Si     Si        0.659961438410311    0.261680271115608    0.710818110128061  0.0000
  Si     Si        0.173610049933933    0.713055324499962    0.264017776193004  0.0000
  Si     Si        0.665469139400619    0.272105363428246    0.017438598121158  0.0000
  Si     Si        0.842040338014160    0.668775605205351    0.010422153697087  0.0000
  Si     Si        0.337605991244488    0.250104317477218    0.966757254636870  0.0000
  Si     Si        0.171837545524018    0.678232467315393    0.956005288914209  0.0000
  Si     Si        0.349044813288936    0.650569722001565    0.957247157453408  0.0000
  Si     Si        0.159125257067588    0.283423763529830    0.967997601131039  0.0000
  Si     Si        0.663055137867377    0.669034040440681    0.018481230491351  0.0000
  Si     Si        0.843960257392252    0.266934775295925    0.009101626193508  0.0000
  O1     O1        0.085218702442134    0.208884700437141    0.367182202196490  0.0000
  O2     O2        0.406040260445742    0.802427146755031    0.345692241178004  0.0000
  O3     O3        0.893291191866534    0.137922545802271    0.616431658795801  0.0000
  O2     O2        0.603709689395291    0.788192849404658    0.630453291488025  0.0000
  O3     O3        0.892188673075168    0.775347727795078    0.619330404850812  0.0000
  O2     O2        0.603490639379178    0.134039589367089    0.631732910789502  0.0000
  O3     O3        0.133632753137121    0.876758941159689    0.333312912516342  0.0000
  O3     O3        0.400256364448068    0.138934710357423    0.373598149641247  0.0000
  O1     O1        0.023896248187220    0.948531174166452    0.526675514475227  0.0000
  O2     O2        0.518528624857675    0.959296977776816    0.469942523470979  0.0000
  O3     O3        0.971140972135129    0.966890023060072    0.274772597813310  0.0000
  O2     O2        0.503965216503195    0.997888944068049    0.220286620094558  0.0000
  O3     O3        0.991689350330016    0.958878259942413    0.792300602334562  0.0000
  O2     O2        0.480336364664202    0.964905186281483    0.715096491565011  0.0000
  O2     O2        0.615765820075320    0.144770061301849    0.104060258401690  0.0000
  O2     O2        0.893783696859215    0.795576366653985    0.099291549679340  0.0000
  O2     O2        0.382454249660056    0.111153769683340    0.873982404307488  0.0000
  O2     O2        0.121054416292176    0.813108622801786    0.872212285252144  0.0000
  O2     O2        0.405133390667494    0.765401136004750    0.870000985966722  0.0000
  O2     O2        0.103364537525836    0.156280442367807    0.883466419025873  0.0000
  O2     O2        0.611036572686430    0.800600166130849    0.106285114459344  0.0000
  O2     O2        0.897767308395759    0.144480465096140    0.096380402215477  0.0000
  O2     O2        0.512021231199979    0.978690875434050    0.964820919130851  0.0000
  O2     O2        0.023117052254652    0.957593011308783    0.040124610505223  0.0000
  O3     O3        0.134970340694073    0.533614079753307    0.303409492671750  0.0000
  O3     O3        0.377700564322450    0.477683877266936    0.290401302858443  0.0000
  O2     O2        0.857441978613869    0.458807899742549    0.679730241574459  0.0000
  O2     O2        0.637928487487530    0.461827061749084    0.679048803773533  0.0000
  O1     O1        0.248278975573084    0.265489384899279    0.332327698418933  0.0000
  O2     O2        0.263775575022821    0.702638736313831    0.305580070947313  0.0000
  O2     O2        0.748423844489703    0.221699196769863    0.669469421044423  0.0000
  O2     O2        0.747523158245036    0.698221146881641    0.672721137828039  0.0000
  O3     O3        0.148423373964328    0.249298729380462    0.119738059118413  0.0000
  O2     O2        0.360005254444314    0.712676344932071    0.107819815000125  0.0000
  O2     O2        0.854031686723282    0.213209166217045    0.856604864628214  0.0000
  O2     O2        0.647516638101772    0.704953622343762    0.865822822336969  0.0000
  O2     O2        0.852959138564613    0.714103569298848    0.858637882124488  0.0000
  O2     O2        0.650828072133513    0.229090331168379    0.864684605176771  0.0000
  O2     O2        0.167616541139788    0.733571212110550    0.107776070085926  0.0000
  O3     O3        0.346467310355278    0.198999040397984    0.116536264547188  0.0000
  O2     O2        0.640173112420786    0.471607423992255    0.051519111311312  0.0000
  O2     O2        0.868077321916540    0.468321663290281    0.034252323126510  0.0000
  O2     O2        0.370315502704901    0.444833547841133    0.942874203764483  0.0000
  O2     O2        0.137745916715914    0.484042715421277    0.934129594291364  0.0000
  O2     O2        0.755474598813142    0.242646154228966    0.051808959333776  0.0000
  O2     O2        0.753030736024054    0.698302683678895    0.051647328425622  0.0000
  O2     O2        0.247541695179167    0.244933567997321    0.926719993359128  0.0000
  O2     O2        0.260805283431117    0.682760550572594    0.909716510061568  0.0000
