data_c00053.vasp
_audit_creation_method             Generated by GULP
_audit_author_name                 Salvador R. G. Balestra
_symmetry_space_group_name_H-M     'P 1             '
_symmetry_Int_Tables_number        1

loop_
_symmetry_equiv_pos_site_id
_symmetry_equiv_pos_as_xyz
_cell_length_a                       17.2986
_cell_length_b                        7.6534
_cell_length_c                       10.2347
_cell_angle_alpha                   89.2165
_cell_angle_beta                    90.5549
_cell_angle_gamma                   89.9665

loop_
_atom_site_label
_atom_site_type_symbol
_atom_site_fract_x
_atom_site_fract_y
_atom_site_fract_z
_atom_site_charge
  Ge     Ge        0.052090000000021    0.000000000000000    0.372269999999958  0.0000
  Ge     Ge        0.453205199942628    0.012347506390953    0.366394336590917  0.0000
  Ge     Ge        0.835157134651765    0.296346136303664    0.698330377769758  0.0000
  Ge     Ge        0.844534288297295    0.681957388519606    0.021692557254382  0.0000
  Si     Si        0.951276535236589    0.006332545053483    0.631527449844448  0.0000
  Si     Si        0.548395319581137    0.014947082633136    0.636886442595038  0.0000
  Si     Si        0.557473867917039    0.999974123858183    0.117156105672976  0.0000
  Si     Si        0.941146169372287    0.990456523945212    0.127927895772074  0.0000
  Si     Si        0.441119177340008    0.009121045380365    0.885043112943338  0.0000
  Si     Si        0.052450233220860    0.004924253876055    0.888528906867399  0.0000
  Si     Si        0.167688742569446    0.292466620181696    0.271166303165952  0.0000
  Si     Si        0.334766386787238    0.722026686842660    0.263254540089381  0.0000
  Si     Si        0.664339674583990    0.720407643778607    0.710906345641984  0.0000
  Si     Si        0.842714592085190    0.707970056490451    0.712090140415349  0.0000
  Si     Si        0.654729457474134    0.320273485549397    0.698317270396293  0.0000
  Si     Si        0.157895752725789    0.697474001249412    0.266580163390573  0.0000
  Si     Si        0.345325270501902    0.317219146765294    0.267929498483201  0.0000
  Si     Si        0.656221175093932    0.308172921253251    0.005160865517349  0.0000
  Si     Si        0.341770076390196    0.316703374942366    0.963975317842868  0.0000
  Si     Si        0.154042610899462    0.695490460932976    0.961939907861224  0.0000
  Si     Si        0.332204168895912    0.715442469937109    0.958252208739671  0.0000
  Si     Si        0.162726706304892    0.296162862176086    0.967237377834377  0.0000
  Si     Si        0.663559743923279    0.702230157346083    0.017737510668733  0.0000
  Si     Si        0.833766602544906    0.275847502225352    0.007546438321393  0.0000
  O3     O3        0.116865984049200    0.169928771477184    0.361054649812853  0.0000
  O3     O3        0.388317393223504    0.844640960387093    0.346772074370984  0.0000
  O3     O3        0.895898492657228    0.172056768501524    0.605920274471719  0.0000
  O2     O2        0.612233051351156    0.860651805088109    0.633105927201338  0.0000
  O2     O2        0.896942116320424    0.834751740805534    0.626426447883915  0.0000
  O2     O2        0.592269718811919    0.201501814864461    0.622679288451375  0.0000
  O3     O3        0.098165958277968    0.803613013159661    0.349733174145042  0.0000
  O3     O3        0.405736159473834    0.209831927974649    0.353269200197577  0.0000
  O3     O3        0.018927440750527    0.995913325564944    0.529422105840953  0.0000
  O3     O3        0.487050052247320    0.992599515140638    0.523812342837863  0.0000
  O3     O3        0.973086827016449    0.025562094413446    0.271142212383924  0.0000
  O3     O3        0.531512249247654    0.001189231403331    0.265275259957511  0.0000
  O2     O2        0.990750639960306    0.025757114548191    0.773913289988571  0.0000
  O2     O2        0.503716241809463    0.003288294989078    0.773337451336667  0.0000
  O2     O2        0.602426235816993    0.178766578449599    0.086003081748828  0.0000
  O3     O3        0.906996267087714    0.796310791179461    0.119610370071147  0.0000
  O2     O2        0.395204115608136    0.193257185585567    0.876935606948667  0.0000
  O2     O2        0.096896565125070    0.819127012643795    0.877064097794928  0.0000
  O2     O2        0.380673959689924    0.849392647774701    0.869074674760092  0.0000
  O2     O2        0.113880123981140    0.163492673320503    0.879405950282060  0.0000
  O2     O2        0.611601850485942    0.832137796703425    0.099611279453740  0.0000
  O2     O2        0.872689107390131    0.127712885338982    0.097979231735920  0.0000
  O2     O2        0.482057618354589    0.986174467328801    0.025566795950581  0.0000
  O2     O2        0.010666273395537    0.017175040905376    0.026767315401616  0.0000
  O2     O2        0.144685939783960    0.492904126241685    0.294980513992817  0.0000
  O2     O2        0.358557753195944    0.521783695359617    0.291478798753704  0.0000
  O3     O3        0.866021930823578    0.509855905443277    0.688118219782076  0.0000
  O2     O2        0.634164252993622    0.525509420080191    0.678480378963269  0.0000
  O2     O2        0.257968677734742    0.263640527214667    0.305423067127435  0.0000
  O2     O2        0.245603986912695    0.751207363705792    0.303023883157274  0.0000
  O3     O3        0.739929391095291    0.284592964863371    0.645970420828595  0.0000
  O2     O2        0.753280831371278    0.738178905150876    0.667072084262133  0.0000
  O2     O2        0.152073426583116    0.246295101307991    0.119424154999497  0.0000
  O2     O2        0.343862443596133    0.764977109457032    0.109402210809988  0.0000
  O3     O3        0.839597192628596    0.221912895082480    0.857919513650663  0.0000
  O2     O2        0.661288942639227    0.757015362675603    0.865162823844753  0.0000
  O3     O3        0.852890451532203    0.756307482208375    0.862947583212269  0.0000
  O2     O2        0.651126364748388    0.268426505563539    0.851580415273317  0.0000
  O2     O2        0.142984568221173    0.741282385188525    0.113529151041647  0.0000
  O2     O2        0.358420160822963    0.272319162278942    0.115745849023982  0.0000
  O2     O2        0.629386698392901    0.505986847542893    0.033732820090812  0.0000
  O3     O3        0.871280153188300    0.464499200888104    0.029475277692434  0.0000
  O2     O2        0.361724825332891    0.518701086391322    0.932321714704415  0.0000
  O2     O2        0.132689876353158    0.493182862062781    0.937490163004123  0.0000
  O2     O2        0.744524342829633    0.286348622347308    0.051552662457391  0.0000
  O3     O3        0.750303205861454    0.708853120625517    0.071100505687834  0.0000
  O2     O2        0.252341906172779    0.280324272660971    0.929264789705713  0.0000
  O2     O2        0.242039221621183    0.731371625319406    0.919313181718596  0.0000
