data_c00009.vasp
_audit_creation_method             Generated by GULP
_audit_author_name                 Salvador R. G. Balestra
_symmetry_space_group_name_H-M     'P 1             '
_symmetry_Int_Tables_number        1

loop_
_symmetry_equiv_pos_site_id
_symmetry_equiv_pos_as_xyz
_cell_length_a                       17.3874
_cell_length_b                        7.6753
_cell_length_c                       10.2162
_cell_angle_alpha                   90.4388
_cell_angle_beta                    90.2076
_cell_angle_gamma                   89.8185

loop_
_atom_site_label
_atom_site_type_symbol
_atom_site_fract_x
_atom_site_fract_y
_atom_site_fract_z
_atom_site_charge
  Ge     Ge        0.052090000000021    0.000000000000000    0.372269999999958  0.0000
  Ge     Ge        0.453213883955531    0.994747974897164    0.407500003216075  0.0000
  Ge     Ge        0.953028639447465    0.986057163116894    0.642831138270001  0.0000
  Ge     Ge        0.661565385202339    0.695373629892895    0.741296970258241  0.0000
  Si     Si        0.548405104919346    0.991982497821315    0.673448527280049  0.0000
  Si     Si        0.563713032644082    0.998025264402046    0.164458197482952  0.0000
  Si     Si        0.949068168223455    0.992044889330377    0.111993390541979  0.0000
  Si     Si        0.448298573928224    0.989617222850345    0.929350781524864  0.0000
  Si     Si        0.064212894664735    0.997451764140222    0.882742760841313  0.0000
  Si     Si        0.162083349350642    0.301574936749523    0.303781229506602  0.0000
  Si     Si        0.344686451304845    0.691996187221370    0.306234216902284  0.0000
  Si     Si        0.838035110806751    0.282912653288886    0.744096385853748  0.0000
  Si     Si        0.840727191726567    0.687666374944928    0.739826128156892  0.0000
  Si     Si        0.660964615830884    0.285505337877030    0.747395094034858  0.0000
  Si     Si        0.167725508249220    0.705152519425328    0.304826561516927  0.0000
  Si     Si        0.339100458182188    0.289041964595415    0.305181514769728  0.0000
  Si     Si        0.664376706221405    0.297399340811727    0.054298231251782  0.0000
  Si     Si        0.841484775659857    0.690302728562205    0.047482645579703  0.0000
  Si     Si        0.340979722415103    0.289657848457944    0.000406671260365  0.0000
  Si     Si        0.166504936808664    0.700255247304751    0.999629264686155  0.0000
  Si     Si        0.344383542180680    0.688101888079853    0.001308986891274  0.0000
  Si     Si        0.162898693173663    0.299689913012609    0.998848329415422  0.0000
  Si     Si        0.664764641694139    0.697151679055469    0.054801217544877  0.0000
  Si     Si        0.841842639125567    0.292901377338376    0.049164095979496  0.0000
  O3     O3        0.105206413565892    0.189865773991113    0.389228229552749  0.0000
  O3     O3        0.403130501804742    0.802876676524408    0.390717419676714  0.0000
  O3     O3        0.893106721946952    0.163228110679492    0.660546891191502  0.0000
  O3     O3        0.598285778354163    0.818224635711508    0.651971384706741  0.0000
  O3     O3        0.903806768045291    0.794492269931363    0.663802368769012  0.0000
  O2     O2        0.607282998403475    0.153979537582275    0.667068890773963  0.0000
  O3     O3        0.114744820055232    0.825800324482676    0.392074305718936  0.0000
  O3     O3        0.392364154620653    0.169607314018992    0.391248227303675  0.0000
  O1     O1        0.980416370986425    0.991596164511419    0.482264165291837  0.0000
  O3     O3        0.482699660589772    0.008123467450429    0.567731003613024  0.0000
  O3     O3        0.015467736718772    0.989720841941176    0.215916604716128  0.0000
  O3     O3        0.533817447705050    0.002765822089986    0.311095326114543  0.0000
  O3     O3        0.037006069911948    0.995572390526615    0.733788541823422  0.0000
  O2     O2        0.510456268758815    0.987943453364940    0.816642855592185  0.0000
  O2     O2        0.613571321800340    0.171572612781308    0.142066262519043  0.0000
  O2     O2        0.896443076339440    0.820006532100797    0.127590001305237  0.0000
  O2     O2        0.392752950869275    0.158101806369211    0.915167199441926  0.0000
  O2     O2        0.116767117289241    0.828360736831972    0.910239998039393  0.0000
  O2     O2        0.397867891181197    0.813597030654257    0.916418465523354  0.0000
  O2     O2        0.110671517278429    0.175574517023115    0.909498336935445  0.0000
  O2     O2        0.614642138470752    0.824277537495974    0.145754443874097  0.0000
  O2     O2        0.895670766160768    0.163923232372431    0.132108683404869  0.0000
  O2     O2        0.489875197516483    0.995620550356134    0.069682869595962  0.0000
  O2     O2        0.986271062151829    0.992284446275373    0.967322802047611  0.0000
  O2     O2        0.146098153316442    0.504823771008263    0.329958678052198  0.0000
  O2     O2        0.360500957453946    0.489343549368649    0.333245395504181  0.0000
  O2     O2        0.857042778052681    0.483559284339325    0.715518181932832  0.0000
  O3     O3        0.638490178692391    0.480374107850547    0.713033698395654  0.0000
  O2     O2        0.250107524788477    0.255555777423666    0.340101144151487  0.0000
  O2     O2        0.256712491903966    0.739001107327315    0.341912116667157  0.0000
  O2     O2        0.749184194989754    0.246555938188104    0.707404868795852  0.0000
  O3     O3        0.755057616595408    0.733656156634752    0.693202013990584  0.0000
  O2     O2        0.148319524983319    0.255156343644686    0.150296238086552  0.0000
  O2     O2        0.357885906630431    0.733950472211609    0.153396445476381  0.0000
  O2     O2        0.850966559243714    0.242236776233666    0.897166480246287  0.0000
  O3     O3        0.651972822871994    0.746783586786767    0.905282944329058  0.0000
  O2     O2        0.846080742833292    0.732549173014587    0.894225270724760  0.0000
  O2     O2        0.651368912479831    0.252092003964703    0.902347267173966  0.0000
  O2     O2        0.154104597212724    0.749675952205519    0.151426291937460  0.0000
  O2     O2        0.352933465211243    0.244075903279616    0.152450075259153  0.0000
  O2     O2        0.639266972678623    0.497419478948499    0.080419899876196  0.0000
  O2     O2        0.868183407143537    0.491892805038062    0.075362563630518  0.0000
  O2     O2        0.367121631071811    0.487508920532015    0.971493380448324  0.0000
  O2     O2        0.140503583502663    0.501023526250949    0.971661336329548  0.0000
  O2     O2        0.753588961080399    0.270200028327782    0.092713147110881  0.0000
  O2     O2        0.754175707399280    0.718233335068767    0.094669188941002  0.0000
  O2     O2        0.251774139278580    0.266621004437925    0.961770187514992  0.0000
  O2     O2        0.255835735990510    0.721223254387490    0.962398142850394  0.0000
