data_c00027.vasp
_audit_creation_method             Generated by GULP
_audit_author_name                 Salvador R. G. Balestra
_symmetry_space_group_name_H-M     'P 1             '
_symmetry_Int_Tables_number        1

loop_
_symmetry_equiv_pos_site_id
_symmetry_equiv_pos_as_xyz
_cell_length_a                       17.3374
_cell_length_b                        7.6497
_cell_length_c                       10.0796
_cell_angle_alpha                   89.4889
_cell_angle_beta                    90.4944
_cell_angle_gamma                   89.0964

loop_
_atom_site_label
_atom_site_type_symbol
_atom_site_fract_x
_atom_site_fract_y
_atom_site_fract_z
_atom_site_charge
  Ge     Ge        0.052090000000021    0.000000000000000    0.372269999999958  0.0000
  Ge     Ge        0.455861293088931    0.972254222272891    0.395981430736646  0.0000
  Ge     Ge        0.443201598027643    0.990698173974486    0.909168387546528  0.0000
  Ge     Ge        0.351707642090431    0.664103502217520    0.292982793267820  0.0000
  Si     Si        0.948919475843498    0.998711215413184    0.630931968453899  0.0000
  Si     Si        0.554408260076969    0.007496124931540    0.659390875128233  0.0000
  Si     Si        0.558832914281358    0.004287569362629    0.148325397550000  0.0000
  Si     Si        0.944786438602466    0.992025806189449    0.113047338872869  0.0000
  Si     Si        0.055107011071002    0.012587405669976    0.875340799281751  0.0000
  Si     Si        0.155404632052350    0.307644136597562    0.291614432038892  0.0000
  Si     Si        0.842251931300934    0.301197032281162    0.730935025335023  0.0000
  Si     Si        0.663160181884110    0.702070197441115    0.722752070588031  0.0000
  Si     Si        0.840151053256057    0.702256747334444    0.730417375219495  0.0000
  Si     Si        0.664763636298917    0.301495207248056    0.724741628895015  0.0000
  Si     Si        0.170645234459857    0.708366012554418    0.300643281007585  0.0000
  Si     Si        0.333293176776043    0.255279368848077    0.280775998554557  0.0000
  Si     Si        0.663311750951288    0.299561401261440    0.035905187300541  0.0000
  Si     Si        0.836572101175961    0.698311577960325    0.042099247075840  0.0000
  Si     Si        0.326199158325402    0.279856388949520    0.972924529043416  0.0000
  Si     Si        0.164704862015859    0.718348682469485    0.990026018624115  0.0000
  Si     Si        0.342522378491663    0.680079792572815    0.979298839253681  0.0000
  Si     Si        0.148794618543374    0.319431491166489    0.983333974515139  0.0000
  Si     Si        0.659737268051310    0.698159344927602    0.034609969614021  0.0000
  Si     Si        0.840834107798678    0.301012844317819    0.042275426336252  0.0000
  O3     O3        0.099370100673993    0.196459405141105    0.381342620983124  0.0000
  O1     O1        0.420653590158743    0.765770249438057    0.384002242430732  0.0000
  O2     O2        0.898456359841974    0.174806090546585    0.650460511868720  0.0000
  O2     O2        0.606629306697265    0.830973485901116    0.639662522083368  0.0000
  O2     O2        0.896927524306811    0.828930708053438    0.653724006000677  0.0000
  O2     O2        0.609943958995866    0.174988624650231    0.641778894022056  0.0000
  O3     O3        0.119962847169066    0.834098531360531    0.390869363673510  0.0000
  O3     O3        0.377382437525463    0.107069598258504    0.362584610988668  0.0000
  O3     O3        0.977868543690723    0.992634990263812    0.482459694086188  0.0000
  O3     O3        0.484898738844990    0.012919227954639    0.556830701140171  0.0000
  O3     O3        0.011427654249159    0.974652466294785    0.217927535942950  0.0000
  O3     O3        0.536784512422266    0.005120518560483    0.301200422677388  0.0000
  O2     O2        0.025436260073174    0.998306028980354    0.724143678544444  0.0000
  O3     O3        0.519505003479103    0.009477757473218    0.805430310727267  0.0000
  O2     O2        0.611638891210897    0.170692569017499    0.119942823437427  0.0000
  O2     O2        0.887627191726877    0.828271919623642    0.127644163298051  0.0000
  O3     O3        0.373821175960526    0.153142456309570    0.880022225049558  0.0000
  O2     O2        0.118402043816665    0.860661045195589    0.902488685733681  0.0000
  O3     O3        0.397766484840485    0.792700135044967    0.887880692277021  0.0000
  O2     O2        0.091323794611231    0.204289363537350    0.895458473298826  0.0000
  O2     O2        0.602815237002885    0.823194041264664    0.113826213288428  0.0000
  O2     O2        0.895035793808245    0.171725837663754    0.129192660183069  0.0000
  O3     O3        0.479552454265251    0.015928832691919    0.067541135952638  0.0000
  O2     O2        0.981485807567397    0.987297965546713    0.967152526398334  0.0000
  O2     O2        0.140381739428391    0.511392171476341    0.318295864296450  0.0000
  O3     O3        0.369456419943775    0.442561087275533    0.308126555489015  0.0000
  O2     O2        0.862788057711409    0.501791391612522    0.697302968943117  0.0000
  O2     O2        0.642501352728637    0.502286400515608    0.688843456726520  0.0000
  O2     O2        0.244052468196645    0.258779906349344    0.325392234536572  0.0000
  O3     O3        0.259208166068386    0.716330497922629    0.343991215855719  0.0000
  O2     O2        0.753952268737633    0.264449440262540    0.688866670003594  0.0000
  O2     O2        0.751689051661757    0.739810728290225    0.685109905903178  0.0000
  O2     O2        0.138413873832796    0.264488326370910    0.136772116234102  0.0000
  O3     O3        0.360143929375722    0.732553926340993    0.129969635760798  0.0000
  O2     O2        0.853428426518230    0.264268974122301    0.887066453956747  0.0000
  O2     O2        0.650390196139438    0.736610877404708    0.878409936463073  0.0000
  O2     O2        0.847463317663434    0.735792184479787    0.886627290304316  0.0000
  O2     O2        0.652475106321849    0.263612493397805    0.880337820105423  0.0000
  O2     O2        0.161115596146774    0.765396731723517    0.145365362825064  0.0000
  O2     O2        0.337490113936130    0.212466598962264    0.124242913001734  0.0000
  O2     O2        0.637044871832142    0.498420687263687    0.066864971629656  0.0000
  O2     O2        0.862599887090787    0.499572203404817    0.076980945738364  0.0000
  O2     O2        0.359389511075934    0.474781121257018    0.958698987648730  0.0000
  O2     O2        0.129526681570224    0.525952521298213    0.964215786330000  0.0000
  O2     O2        0.752065533252118    0.267971634517563    0.078395154121099  0.0000
  O2     O2        0.747490858544683    0.730015808115783    0.080127958443434  0.0000
  O2     O2        0.235717653866829    0.280735987960136    0.935638230283624  0.0000
  O2     O2        0.253017454845168    0.722206696057641    0.943772877994712  0.0000
