data_c00019.vasp
_audit_creation_method             Generated by GULP
_audit_author_name                 Salvador R. G. Balestra
_symmetry_space_group_name_H-M     'P 1             '
_symmetry_Int_Tables_number        1

loop_
_symmetry_equiv_pos_site_id
_symmetry_equiv_pos_as_xyz
_cell_length_a                       17.1934
_cell_length_b                        7.6077
_cell_length_c                       10.3892
_cell_angle_alpha                   89.2833
_cell_angle_beta                    90.3245
_cell_angle_gamma                   90.3583

loop_
_atom_site_label
_atom_site_type_symbol
_atom_site_fract_x
_atom_site_fract_y
_atom_site_fract_z
_atom_site_charge
  Ge     Ge        0.052090000000021    0.000000000000000    0.372269999999958  0.0000
  Ge     Ge        0.456256762688446    0.987490846889666    0.380552338754276  0.0000
  Ge     Ge        0.564833008104972    0.980846688159905    0.129276723973592  0.0000
  Ge     Ge        0.852963381620043    0.324622169510941    0.706061162158190  0.0000
  Si     Si        0.955509315881527    0.014367235658638    0.635263395414093  0.0000
  Si     Si        0.550673092889274    0.997987396688817    0.646872798435316  0.0000
  Si     Si        0.945207385309570    0.001202538529528    0.121778939209442  0.0000
  Si     Si        0.446529678092175    0.999843172760388    0.895382395378160  0.0000
  Si     Si        0.058799385846333    0.001863631753999    0.889179736007907  0.0000
  Si     Si        0.157009072804246    0.309906510020685    0.276897815693423  0.0000
  Si     Si        0.351279069954813    0.681229642357253    0.275557234138196  0.0000
  Si     Si        0.655529460483516    0.690132325427547    0.722733056247652  0.0000
  Si     Si        0.834426020442073    0.733058583192620    0.718104691913974  0.0000
  Si     Si        0.670214995076394    0.285207789251019    0.711148917436518  0.0000
  Si     Si        0.172686162303474    0.717094544091850    0.274362785966896  0.0000
  Si     Si        0.335423146419128    0.274152789146537    0.275152789631885  0.0000
  Si     Si        0.678045552314575    0.268214659531344    0.011724459824606  0.0000
  Si     Si        0.834942443829884    0.713414691120368    0.020222441460530  0.0000
  Si     Si        0.335218722035674    0.283730713891583    0.975572194452706  0.0000
  Si     Si        0.170070289957623    0.715263696643970    0.975400116963729  0.0000
  Si     Si        0.350183420713122    0.684067131796034    0.976497751568194  0.0000
  Si     Si        0.155335240006374    0.314227522024797    0.977960571352187  0.0000
  Si     Si        0.655925914361582    0.664639997250741    0.022051019344587  0.0000
  Si     Si        0.857493797094990    0.318273494395278    0.012894945632918  0.0000
  O3     O3        0.096264479816993    0.203984266635178    0.362189907307883  0.0000
  O3     O3        0.413011547544780    0.783979828052855    0.359343051319491  0.0000
  O3     O3        0.919896272554923    0.207815816055819    0.619291773442555  0.0000
  O2     O2        0.596072203518566    0.811968004591241    0.642561755260556  0.0000
  O2     O2        0.879983838400818    0.886115668688374    0.642394185442785  0.0000
  O2     O2        0.613289292967804    0.157003025530498    0.631823224719172  0.0000
  O3     O3        0.122854035761308    0.842129340057554    0.360590694373645  0.0000
  O3     O3        0.386577860797608    0.147359555192298    0.360866116351309  0.0000
  O3     O3        0.011503902519409    0.968475507801382    0.520841224742358  0.0000
  O3     O3        0.487155673361576    0.004479562291987    0.537195208222098  0.0000
  O3     O3        0.977459188912403    0.978639707392944    0.263692873173813  0.0000
  O1     O1        0.535221147212942    0.009135260897964    0.283572069974424  0.0000
  O2     O2        0.005126025376999    0.990200723810255    0.765516402143773  0.0000
  O2     O2        0.506921774544543    0.020239322464334    0.781500760208526  0.0000
  O3     O3        0.641915228336028    0.120707495331747    0.100568969674973  0.0000
  O2     O2        0.876047581382029    0.859030265539462    0.106593152133491  0.0000
  O2     O2        0.380068463616406    0.149721617678083    0.884646927279471  0.0000
  O2     O2        0.125067513839418    0.852162631827195    0.883594931027770  0.0000
  O2     O2        0.406508747738193    0.806292139796460    0.890358054277771  0.0000
  O2     O2        0.098550605882587    0.195191503089736    0.891770066384739  0.0000
  O3     O3        0.596863671334498    0.767472685903278    0.109269333706217  0.0000
  O2     O2        0.913412285435775    0.199164390695557    0.101940382207000  0.0000
  O3     O3        0.488574758322886    0.032273849822511    0.029907983909613  0.0000
  O2     O2        0.011195301160257    0.961275692205715    0.018174387313795  0.0000
  O2     O2        0.146845264261967    0.516197377185507    0.300776323890552  0.0000
  O2     O2        0.361473149940173    0.474282014060258    0.300793489413676  0.0000
  O3     O3        0.867818391071131    0.546070566385736    0.679141973854088  0.0000
  O2     O2        0.640329730987756    0.485635826280567    0.692101220707892  0.0000
  O2     O2        0.244752735323661    0.250440053570274    0.310937521261489  0.0000
  O2     O2        0.263706046280567    0.740067580114532    0.308813019189235  0.0000
  O3     O3        0.758135244910255    0.273056518079074    0.663636281912273  0.0000
  O2     O2        0.743104713386519    0.741716421657765    0.681362468803340  0.0000
  O2     O2        0.139953102465258    0.265590151672911    0.127185342232703  0.0000
  O2     O2        0.367758394909910    0.727682671495706    0.125457851204324  0.0000
  O3     O3        0.872226155435926    0.274036299635520    0.865425486319054  0.0000
  O2     O2        0.642832242838720    0.725817070887498    0.873760526875510  0.0000
  O2     O2        0.842966258400742    0.764062931346916    0.870486058190899  0.0000
  O2     O2        0.668135350857258    0.225579674381907    0.860876958426718  0.0000
  O2     O2        0.158569415172787    0.766170549478603    0.124206650935021  0.0000
  O2     O2        0.347660229242685    0.230204769265035    0.124862201217075  0.0000
  O2     O2        0.638830359404436    0.457101598787481    0.038489038127622  0.0000
  O2     O2        0.874998046970815    0.523204423538881    0.042749948888682  0.0000
  O2     O2        0.367999700040000    0.480462386868301    0.948798012484169  0.0000
  O2     O2        0.137163300778770    0.518956636037808    0.950207567314597  0.0000
  O2     O2        0.768588717040170    0.277143893132296    0.047372287911503  0.0000
  O2     O2        0.745023065766370    0.706484993985510    0.061451013686458  0.0000
  O2     O2        0.244114870701716    0.274571830901584    0.941093094508957  0.0000
  O2     O2        0.260969619280372    0.725162604164943    0.941069021657517  0.0000
