data_c00060.vasp
_audit_creation_method             Generated by GULP
_audit_author_name                 Salvador R. G. Balestra
_symmetry_space_group_name_H-M     'P 1             '
_symmetry_Int_Tables_number        1

loop_
_symmetry_equiv_pos_site_id
_symmetry_equiv_pos_as_xyz
_cell_length_a                       17.1924
_cell_length_b                        7.5964
_cell_length_c                       10.2183
_cell_angle_alpha                   90.0000
_cell_angle_beta                    90.0000
_cell_angle_gamma                   89.6462

loop_
_atom_site_label
_atom_site_type_symbol
_atom_site_fract_x
_atom_site_fract_y
_atom_site_fract_z
_atom_site_charge
  Ge     Ge        0.052090000000021    0.000000000000000    0.372269999999958  0.0000
  Ge     Ge        0.453333483999940    0.002966203657211    0.372270295863206  0.0000
  Ge     Ge        0.650020153195562    0.325526016103188    0.042181904938673  0.0000
  Ge     Ge        0.855403691105370    0.677439256960167    0.042181970254824  0.0000
  Si     Si        0.950772368058529    0.993596955437426    0.634050462900439  0.0000
  Si     Si        0.554651497903427    0.009368502923960    0.634050399842148  0.0000
  Si     Si        0.554281250320537    0.005352803098205    0.113846009301370  0.0000
  Si     Si        0.951142566544094    0.997612791367839    0.113845458260278  0.0000
  Si     Si        0.444146224362763    0.005752445259628    0.873045040652216  0.0000
  Si     Si        0.061277857968688    0.997212878924527    0.873044640918503  0.0000
  Si     Si        0.171969489014097    0.279370748770547    0.287772713723814  0.0000
  Si     Si        0.333454067920000    0.723595287153656    0.287772942110551  0.0000
  Si     Si        0.832989768428735    0.285550174214215    0.733211368006035  0.0000
  Si     Si        0.672433980646916    0.717415838660130    0.733211624423210  0.0000
  Si     Si        0.848918672669896    0.689116673292971    0.729597879551267  0.0000
  Si     Si        0.656505238953812    0.313848561161284    0.729598188236623  0.0000
  Si     Si        0.153893560061324    0.684785710507036    0.286670433091485  0.0000
  Si     Si        0.351530002003886    0.318180346819603    0.286670771927715  0.0000
  Si     Si        0.350234799057467    0.317031075529549    0.983779782573764  0.0000
  Si     Si        0.155189166562960    0.685934406304824    0.983779466029655  0.0000
  Si     Si        0.335392224054440    0.719982941925764    0.984056360569548  0.0000
  Si     Si        0.170031729874043    0.282982531026474    0.984056155647318  0.0000
  Si     Si        0.674473345906073    0.724559017040561    0.042643412596455  0.0000
  Si     Si        0.830950299156470    0.278406933343682    0.042643764691797  0.0000
  O3     O3        0.126488233892170    0.151933418870597    0.382838012523053  0.0000
  O3     O3        0.378935247822615    0.851032759999419    0.382838285568203  0.0000
  O2     O2        0.888317166176412    0.147169653853010    0.661427544447393  0.0000
  O2     O2        0.617106693069834    0.855795295078291    0.661426298215008  0.0000
  O2     O2        0.909547230286748    0.804092432667246    0.645739504727555  0.0000
  O2     O2        0.595876617700350    0.198873077800683    0.645739667892321  0.0000
  O3     O3        0.094064411839972    0.792761911311394    0.373961343577959  0.0000
  O3     O3        0.411359007598621    0.210204242929449    0.373961905122830  0.0000
  O3     O3        0.981948622567998    0.017555540743738    0.489265911700866  0.0000
  O3     O3        0.523474950282093    0.985410649459374    0.489265947890545  0.0000
  O3     O3        0.006813990856072    0.053930588576195    0.227949955922577  0.0000
  O3     O3        0.498609353288925    0.949035895957894    0.227950045561887  0.0000
  O2     O2        0.026399494054746    0.006950939712590    0.727746813945827  0.0000
  O2     O2        0.479024552224190    0.996014171040781    0.727747184843387  0.0000
  O3     O3        0.582449563690078    0.205448938353562    0.127946036257214  0.0000
  O3     O3        0.922974404288892    0.797516606514417    0.127945697497296  0.0000
  O2     O2        0.405768557535725    0.198808303057373    0.892996583697418  0.0000
  O2     O2        0.099655521288538    0.804157054549115    0.892996089662620  0.0000
  O2     O2        0.379305826899797    0.854748903878866    0.889392036312153  0.0000
  O2     O2        0.126118236736039    0.148216466453868    0.889391674014620  0.0000
  O2     O2        0.632688623888823    0.887195846837180    0.113532329418186  0.0000
  O2     O2        0.872734920760116    0.115768842045275    0.113530931131082  0.0000
  O2     O2        0.513097517260933    0.972329457202379    0.974494050055691  0.0000
  O2     O2        0.992326576054195    0.030636015828458    0.974493731051513  0.0000
  O2     O2        0.141891106284148    0.478300038570003    0.310345369587040  0.0000
  O2     O2        0.363532422079116    0.524666040716611    0.310345775490983  0.0000
  O2     O2        0.865883240204132    0.481435978050120    0.707188849206050  0.0000
  O2     O2        0.639540699027391    0.521529496767264    0.707190529511440  0.0000
  O2     O2        0.263331427552513    0.264930885980670    0.320689226610270  0.0000
  O2     O2        0.242092081730887    0.738035233438769    0.320689206433184  0.0000
  O2     O2        0.744421473269468    0.270263725734477    0.680778822550119  0.0000
  O2     O2        0.761002337897968    0.732701703366526    0.680779316673366  0.0000
  O2     O2        0.158399888300516    0.227644162464435    0.135243492772153  0.0000
  O2     O2        0.347023825822378    0.775321504748477    0.135243729647791  0.0000
  O2     O2        0.828289696465237    0.247533674067970    0.886622857490396  0.0000
  O2     O2        0.677133555596031    0.755435549280755    0.886622808702831  0.0000
  O3     O3        0.861831661709419    0.737963499811089    0.879739326767707  0.0000
  O3     O3        0.643592432720521    0.265000576711185    0.879739437440853  0.0000
  O2     O2        0.137147448199684    0.734553110349992    0.134566155428524  0.0000
  O2     O2        0.368276320435934    0.268412742869847    0.134566549808472  0.0000
  O3     O3        0.628738874267948    0.544433326652586    0.068163329299205  0.0000
  O3     O3        0.876684912350912    0.458532216079926    0.068164900015669  0.0000
  O2     O2        0.368190474971446    0.522695572238418    0.958848259183141  0.0000
  O2     O2        0.137233505175894    0.480269871310168    0.958847965706340  0.0000
  O3     O3        0.744042541549313    0.291171719417566    0.095804718499698  0.0000
  O3     O3        0.761381158424649    0.711793751266505    0.095804104916910  0.0000
  O2     O2        0.261063993069162    0.276153833536473    0.948875124105597  0.0000
  O2     O2        0.244360005730735    0.726811558266069    0.948875024097067  0.0000
