data_c00076.vasp
_audit_creation_method             Generated by GULP
_audit_author_name                 Salvador R. G. Balestra
_symmetry_space_group_name_H-M     'P 1             '
_symmetry_Int_Tables_number        1

loop_
_symmetry_equiv_pos_site_id
_symmetry_equiv_pos_as_xyz
_cell_length_a                       17.2928
_cell_length_b                        7.6478
_cell_length_c                       10.2195
_cell_angle_alpha                   90.7001
_cell_angle_beta                    90.8222
_cell_angle_gamma                   89.7091

loop_
_atom_site_label
_atom_site_type_symbol
_atom_site_fract_x
_atom_site_fract_y
_atom_site_fract_z
_atom_site_charge
  Ge     Ge        0.052090000000021    0.000000000000000    0.372269999999958  0.0000
  Ge     Ge        0.948382297089624    0.979517710303763    0.637212505940587  0.0000
  Ge     Ge        0.561072351204173    0.010461882237408    0.161874093423675  0.0000
  Ge     Ge        0.663463018430010    0.716295389797246    0.740804644294102  0.0000
  Si     Si        0.450775394459756    0.006731383344419    0.404302752054045  0.0000
  Si     Si        0.544426027283375    0.001313664461408    0.664433272218280  0.0000
  Si     Si        0.947872284358161    0.993753503954207    0.111001732233854  0.0000
  Si     Si        0.444074291775636    0.990730171573541    0.917926628568612  0.0000
  Si     Si        0.060030256185436    0.993027919228635    0.880332679679833  0.0000
  Si     Si        0.168605766700802    0.290264329235270    0.302596616799056  0.0000
  Si     Si        0.340346110658751    0.710042162639246    0.299131738189172  0.0000
  Si     Si        0.827997767119700    0.270847000670889    0.739191893395505  0.0000
  Si     Si        0.844320316540665    0.673249685833982    0.732527321987647  0.0000
  Si     Si        0.650057529691134    0.303544829230007    0.747061994378227  0.0000
  Si     Si        0.162268358528894    0.695331556487423    0.302056210539835  0.0000
  Si     Si        0.347025303125939    0.308567011189503    0.300619786899812  0.0000
  Si     Si        0.656345448705862    0.320150909105375    0.050561441153804  0.0000
  Si     Si        0.849755197974979    0.679260492798176    0.039857728260976  0.0000
  Si     Si        0.344620829722927    0.303846066557741    0.994764983165317  0.0000
  Si     Si        0.156888190479984    0.687741753042427    0.997412439112740  0.0000
  Si     Si        0.335475058214249    0.700338255504882    0.992410459774030  0.0000
  Si     Si        0.165409794492323    0.285983245438249    0.998381390042040  0.0000
  Si     Si        0.671982617217294    0.722738431150002    0.049488207660231  0.0000
  Si     Si        0.834168623245550    0.283928880378247    0.045167310522426  0.0000
  O3     O3        0.116695825265282    0.172173809523194    0.391392647137595  0.0000
  O2     O2        0.394767965348272    0.842034441951688    0.378964992471410  0.0000
  O3     O3        0.877314009801653    0.135444740227769    0.657629843781803  0.0000
  O3     O3        0.605353429466211    0.845824600679507    0.644383587098297  0.0000
  O3     O3        0.907433761584807    0.775747156871482    0.652724973401970  0.0000
  O2     O2        0.590837297837254    0.183857646442327    0.664233596223628  0.0000
  O3     O3        0.105876107568852    0.809307502932060    0.388963855078207  0.0000
  O2     O2        0.404899918233662    0.188000551328895    0.382567342268141  0.0000
  O1     O1        0.979258473202457    0.004370701490130    0.480263190270695  0.0000
  O2     O2        0.477970279442973    0.002551825881573    0.554630272323128  0.0000
  O3     O3        0.013502022852723    0.016127021372633    0.216942458022767  0.0000
  O3     O3        0.526424006355012    0.998487885981767    0.317845685647811  0.0000
  O3     O3        0.031609603906216    0.999816228649310    0.731894129653481  0.0000
  O2     O2        0.504193377481271    0.972691306573808    0.802906948674682  0.0000
  O3     O3        0.600018834745503    0.215878499011584    0.141602682056310  0.0000
  O2     O2        0.908303161235538    0.802693718223866    0.121752041866436  0.0000
  O2     O2        0.399502242987945    0.177339466952195    0.910634898222460  0.0000
  O2     O2        0.101436925356452    0.807246181816936    0.908991064145124  0.0000
  O2     O2        0.381961864942919    0.833849327649616    0.904285488849076  0.0000
  O2     O2        0.118083806964357    0.153597449752157    0.906519341545211  0.0000
  O3     O3        0.631737413810413    0.851883861949456    0.149726291395665  0.0000
  O2     O2        0.882586118538814    0.144466159932294    0.129202465627265  0.0000
  O3     O3        0.486569725389394    0.967236323603640    0.055353417054344  0.0000
  O2     O2        0.983745525431622    0.014601666667246    0.967156320004701  0.0000
  O2     O2        0.146657162848999    0.492210131635439    0.327613391481337  0.0000
  O2     O2        0.364643436626813    0.511400230060716    0.333727597741264  0.0000
  O2     O2        0.855723036128623    0.466447486042508    0.707320396866545  0.0000
  O3     O3        0.632162653028112    0.503718992704624    0.721640964827487  0.0000
  O2     O2        0.259273575189094    0.261992172674785    0.335990884502588  0.0000
  O2     O2        0.251300431944257    0.742360299958138    0.336969743258994  0.0000
  O2     O2        0.737178429003130    0.255005799833802    0.702875980830615  0.0000
  O3     O3        0.758180609300853    0.730325883945754    0.691332201005208  0.0000
  O2     O2        0.153648689398307    0.238938509373559    0.149882462068229  0.0000
  O2     O2        0.350158729830977    0.742660944739376    0.145310106714955  0.0000
  O2     O2        0.839566955091314    0.232603053067446    0.892769633158123  0.0000
  O3     O3        0.657210023025000    0.785106814141943    0.901977369410110  0.0000
  O2     O2        0.856919568140825    0.718200524142794    0.886383986547003  0.0000
  O2     O2        0.641234709918527    0.258648768134289    0.900597632501668  0.0000
  O2     O2        0.145173790115522    0.738752242488114    0.149257860776109  0.0000
  O2     O2        0.361813485444848    0.269905559465721    0.147704154946861  0.0000
  O2     O2        0.638990803389573    0.526334266124244    0.063218481628876  0.0000
  O2     O2        0.869810238288319    0.477150274495699    0.070387969296950  0.0000
  O2     O2        0.364168399057794    0.503470980267691    0.959631512086813  0.0000
  O2     O2        0.136239404399722    0.484049898850317    0.972035418357817  0.0000
  O2     O2        0.745511573696397    0.279793650041764    0.090477764513938  0.0000
  O2     O2        0.763096523190194    0.721545111828946    0.083647769723474  0.0000
  O2     O2        0.255169758188342    0.265649182899040    0.961829968499642  0.0000
  O2     O2        0.245100336219991    0.720779855805194    0.957518420383792  0.0000
