data_c00061.vasp
_audit_creation_method             Generated by GULP
_audit_author_name                 Salvador R. G. Balestra
_symmetry_space_group_name_H-M     'P 1             '
_symmetry_Int_Tables_number        1

loop_
_symmetry_equiv_pos_site_id
_symmetry_equiv_pos_as_xyz
_cell_length_a                       17.2630
_cell_length_b                        7.6192
_cell_length_c                       10.2491
_cell_angle_alpha                   89.9222
_cell_angle_beta                    89.4524
_cell_angle_gamma                   90.1501

loop_
_atom_site_label
_atom_site_type_symbol
_atom_site_fract_x
_atom_site_fract_y
_atom_site_fract_z
_atom_site_charge
  Ge     Ge        0.052090000000021    0.000000000000000    0.372269999999958  0.0000
  Ge     Ge        0.453889043879985    0.015652638296350    0.373779055598586  0.0000
  Ge     Ge        0.656119385596337    0.345425033278682    0.026984000826956  0.0000
  Ge     Ge        0.353372837495526    0.343900177948528    0.959773292953187  0.0000
  Si     Si        0.955179530758721    0.012031165376772    0.640283280461580  0.0000
  Si     Si        0.557450012801022    0.013889216675127    0.634850039896345  0.0000
  Si     Si        0.561005023107702    0.030753008983360    0.125196883332907  0.0000
  Si     Si        0.945663583249200    0.020482204382720    0.125082729706962  0.0000
  Si     Si        0.451974983859393    0.030698697092366    0.883960714816543  0.0000
  Si     Si        0.060354288435355    0.021280257586066    0.891066272848632  0.0000
  Si     Si        0.173639888020294    0.289787664976369    0.264095243317628  0.0000
  Si     Si        0.335248934723552    0.730561158422290    0.277599462978910  0.0000
  Si     Si        0.839187467736587    0.302434433954248    0.717268340692468  0.0000
  Si     Si        0.672175802007583    0.725996811420442    0.705073046116707  0.0000
  Si     Si        0.849713054104817    0.704963364574365    0.706736271068805  0.0000
  Si     Si        0.660685347184162    0.322014035797304    0.715821296713947  0.0000
  Si     Si        0.156846213072867    0.693727214713835    0.277981898035006  0.0000
  Si     Si        0.350458369037968    0.322557017823184    0.268078488899117  0.0000
  Si     Si        0.849836802078946    0.711870066400669    0.011386932670427  0.0000
  Si     Si        0.158519717679505    0.710743210165066    0.976002255483620  0.0000
  Si     Si        0.338489675102421    0.749984657602098    0.976002654086023  0.0000
  Si     Si        0.172560189226457    0.313181513284240    0.958293736171372  0.0000
  Si     Si        0.671698734151942    0.748465771455050    0.010961979222787  0.0000
  Si     Si        0.838188063927780    0.314874348136611    0.023318780059981  0.0000
  O3     O3        0.122106840161774    0.156098014612619    0.343919270231411  0.0000
  O3     O3        0.384982345512878    0.851322697404346    0.370450837401662  0.0000
  O2     O2        0.891743555972372    0.167711279810321    0.636331868746546  0.0000
  O2     O2        0.619537948681706    0.855485724419124    0.619698194628916  0.0000
  O2     O2        0.909569103641102    0.826123432523129    0.625478060535261  0.0000
  O2     O2        0.604031603575497    0.198701057925911    0.631879541655427  0.0000
  O3     O3        0.096139637753969    0.796756210450478    0.365670722673006  0.0000
  O3     O3        0.410519917300512    0.217126791024689    0.354446350165015  0.0000
  O3     O3        0.017491938421935    0.032796700593906    0.527939827222568  0.0000
  O3     O3        0.494283956893907    0.010552044371080    0.525285272381083  0.0000
  O3     O3        0.973520434928682    0.017369748512447    0.271820796196921  0.0000
  O3     O3        0.529107985157996    0.980375765381890    0.265660635506900  0.0000
  O2     O2        0.999037181200936    0.022472624754897    0.777167014107598  0.0000
  O2     O2        0.511235586026603    0.983661251685207    0.769965488572327  0.0000
  O3     O3        0.591589508128801    0.229832674376449    0.122145349992217  0.0000
  O2     O2        0.905213271393203    0.835149419730761    0.094126929579139  0.0000
  O3     O3        0.418867175183915    0.225372609969871    0.867438088732570  0.0000
  O2     O2        0.105589461279011    0.836125629443652    0.888552409295774  0.0000
  O2     O2        0.378300344833920    0.898355701812174    0.886466664731205  0.0000
  O2     O2        0.120907970944744    0.181421834498462    0.872861262206718  0.0000
  O2     O2        0.634209142951711    0.909341851063171    0.087752860376626  0.0000
  O2     O2        0.886486102925259    0.180852487254894    0.109668660145712  0.0000
  O2     O2        0.493104176522891    0.003786367666438    0.021991223863711  0.0000
  O2     O2        0.018962445670429    0.049830802787945    0.030253014183444  0.0000
  O2     O2        0.143045311337615    0.486163231620400    0.292577058174246  0.0000
  O2     O2        0.364017822506257    0.530234863335463    0.286708461729920  0.0000
  O2     O2        0.868338741399698    0.499792530382632    0.684396110913799  0.0000
  O2     O2        0.643197961038379    0.526276954132979    0.684820430699740  0.0000
  O2     O2        0.262496453601295    0.272428563515189    0.309938897129026  0.0000
  O2     O2        0.244776696382717    0.741847715638398    0.317441427999194  0.0000
  O2     O2        0.749718404425963    0.280261063467806    0.676701363107357  0.0000
  O2     O2        0.761999029885176    0.743836831715677    0.661002475408619  0.0000
  O2     O2        0.171529472325001    0.252401875072780    0.109363754722890  0.0000
  O2     O2        0.347077682314929    0.797858345973922    0.128887292820376  0.0000
  O2     O2        0.844157493720293    0.262321131548868    0.871167369502418  0.0000
  O2     O2        0.665284479131639    0.779759366115405    0.856145434367303  0.0000
  O2     O2        0.859529455035493    0.754178867531849    0.858407862187823  0.0000
  O3     O3        0.644744066491063    0.282350077005038    0.866650362003657  0.0000
  O2     O2        0.143079782527132    0.753672268329769    0.128051765987548  0.0000
  O3     O3        0.364076903858758    0.271880835774535    0.118060436871731  0.0000
  O3     O3        0.632639204406474    0.564296240292790    0.046570975032382  0.0000
  O2     O2        0.872745392191738    0.511004827282633    0.041363799162035  0.0000
  O3     O3        0.376557657011182    0.563136738774041    0.946510401672432  0.0000
  O2     O2        0.137309298363304    0.509146927867490    0.944916809459320  0.0000
  O3     O3        0.750423340958777    0.309639679570551    0.071838919702892  0.0000
  O2     O2        0.761154282101247    0.742658469796051    0.053437042127318  0.0000
  O3     O3        0.259905258174648    0.310951376631104    0.906815816915528  0.0000
  O2     O2        0.248111037820503    0.742967053978485    0.939632183922177  0.0000
