data_c00091.vasp
_audit_creation_method             Generated by GULP
_audit_author_name                 Salvador R. G. Balestra
_symmetry_space_group_name_H-M     'P 1             '
_symmetry_Int_Tables_number        1

loop_
_symmetry_equiv_pos_site_id
_symmetry_equiv_pos_as_xyz
_cell_length_a                       17.2861
_cell_length_b                        7.6269
_cell_length_c                       10.3146
_cell_angle_alpha                   90.3382
_cell_angle_beta                    91.0617
_cell_angle_gamma                   89.7571

loop_
_atom_site_label
_atom_site_type_symbol
_atom_site_fract_x
_atom_site_fract_y
_atom_site_fract_z
_atom_site_charge
  Ge     Ge        0.052090000000021    0.000000000000000    0.372269999999958  0.0000
  Ge     Ge        0.950242103797401    0.985745663188728    0.633080786482178  0.0000
  Ge     Ge        0.157378594527756    0.311326452672628    0.281735268391131  0.0000
  Ge     Ge        0.840849359649715    0.297871470441732    0.701542042594175  0.0000
  Si     Si        0.455696711415855    0.981571300492995    0.354032411950399  0.0000
  Si     Si        0.543638163756220    0.979485745961716    0.625681254771164  0.0000
  Si     Si        0.559753917288162    0.979997463517298    0.108112314332699  0.0000
  Si     Si        0.942317156673358    0.984812700123581    0.125293260837321  0.0000
  Si     Si        0.440475213785629    0.971089352370437    0.872093045672862  0.0000
  Si     Si        0.054371763985795    0.981366676549346    0.894743169267139  0.0000
  Si     Si        0.352106029550558    0.674474258882375    0.262798608831823  0.0000
  Si     Si        0.648678088121130    0.674698185292933    0.716823236762043  0.0000
  Si     Si        0.827592778321088    0.708197870746396    0.710461858122538  0.0000
  Si     Si        0.659656497234311    0.271886020692066    0.709335403743787  0.0000
  Si     Si        0.174736602307876    0.717870471830277    0.267058598607522  0.0000
  Si     Si        0.338951619599704    0.272905344774860    0.273298502428876  0.0000
  Si     Si        0.668299892473414    0.270602603351440    0.014117215241415  0.0000
  Si     Si        0.834228055191237    0.694572128148127    0.012286929072486  0.0000
  Si     Si        0.331097846892042    0.262071720636253    0.968995905138263  0.0000
  Si     Si        0.168777950489040    0.691712228829571    0.962590487988591  0.0000
  Si     Si        0.346030390467953    0.659526158107058    0.959901881544352  0.0000
  Si     Si        0.152906059557149    0.293745752551687    0.971897675862586  0.0000
  Si     Si        0.655497202890302    0.668384222507217    0.018554938441088  0.0000
  Si     Si        0.846265707249393    0.291318864240171    0.009757356914991  0.0000
  O1     O1        0.089936330011243    0.206866584227258    0.370661376991695  0.0000
  O2     O2        0.412256984145584    0.796077446922849    0.340444684082401  0.0000
  O1     O1        0.907129808425306    0.186566185792128    0.612686308521030  0.0000
  O2     O2        0.590263719594202    0.796773178026603    0.635921814030171  0.0000
  O3     O3        0.872072025536951    0.843634010704345    0.624473526013625  0.0000
  O2     O2        0.602261968695362    0.142012183737492    0.633572277530729  0.0000
  O3     O3        0.131730390595045    0.872006712178421    0.338701809933300  0.0000
  O2     O2        0.394408230866298    0.140729955026886    0.351427624550840  0.0000
  O1     O1        0.019497467257880    0.947434050581387    0.522490993136898  0.0000
  O2     O2        0.500461050956461    0.985630738244901    0.489197442292633  0.0000
  O3     O3        0.971709722493462    0.976517377911447    0.271820720901405  0.0000
  O2     O2        0.517558674791541    0.004725730127587    0.242316257645940  0.0000
  O3     O3        0.990695131257703    0.961498275612374    0.785670689850738  0.0000
  O2     O2        0.480013864853926    0.994957043839945    0.735649306560099  0.0000
  O2     O2        0.623361584887659    0.132237549402936    0.099621957673098  0.0000
  O2     O2        0.881760458504545    0.827161854625218    0.103237797511186  0.0000
  O2     O2        0.374054318760887    0.118161602097926    0.883432628665882  0.0000
  O2     O2        0.119002720729128    0.828772259445274    0.878380640805870  0.0000
  O2     O2        0.402764732504503    0.777570090490699    0.875741744501246  0.0000
  O2     O2        0.095652457605740    0.171543135019886    0.885904540925042  0.0000
  O2     O2        0.601566550436465    0.790175833446086    0.106568086815854  0.0000
  O2     O2        0.902937026836441    0.174262778892815    0.099326875744201  0.0000
  O2     O2        0.500896906632441    0.000495114952104    0.988503002204419  0.0000
  O2     O2        0.016279164728922    0.958336323134189    0.035115785705917  0.0000
  O3     O3        0.140344275185139    0.531801119746279    0.305493127319588  0.0000
  O2     O2        0.369790170046646    0.471493017158580    0.293786742923120  0.0000
  O3     O3        0.859098432718616    0.515814671700076    0.679944843100395  0.0000
  O2     O2        0.630788944178167    0.471623961089508    0.686403252586183  0.0000
  O3     O3        0.252343117625200    0.260130254024084    0.323011485243050  0.0000
  O2     O2        0.265618223659153    0.721615162232513    0.306395063443601  0.0000
  O3     O3        0.745887574206811    0.249900301563731    0.659141498127511  0.0000
  O2     O2        0.736077897885940    0.716960751508413    0.677399176824665  0.0000
  O3     O3        0.141420017319064    0.251653311813548    0.121398056557316  0.0000
  O2     O2        0.360002141467817    0.711083005104364    0.109990935157153  0.0000
  O3     O3        0.856548650777593    0.236917706424749    0.861853686901428  0.0000
  O2     O2        0.638068741492935    0.716059342730095    0.868878669056145  0.0000
  O2     O2        0.841421669038944    0.751499071705020    0.863271790819992  0.0000
  O2     O2        0.658962425705752    0.227141933587256    0.862043340219157  0.0000
  O2     O2        0.165569666846396    0.743851730992776    0.112833686660442  0.0000
  O2     O2        0.340766791920009    0.221738976075275    0.121213294014473  0.0000
  O2     O2        0.635608905144476    0.465401426734479    0.044315630803352  0.0000
  O2     O2        0.867055418294936    0.496983565108472    0.030136068964297  0.0000
  O2     O2        0.365137710357729    0.454456464407963    0.937395958391722  0.0000
  O2     O2        0.133505902826962    0.497254184375174    0.941677208655977  0.0000
  O2     O2        0.758438973445642    0.259445359434809    0.053567031581005  0.0000
  O2     O2        0.745087328095746    0.703422414833430    0.053930136399523  0.0000
  O2     O2        0.240786972459799    0.254450109600073    0.931007322921693  0.0000
  O2     O2        0.257344007536278    0.696937877991901    0.916881956193554  0.0000
