data_c00043.vasp
_audit_creation_method             Generated by GULP
_audit_author_name                 Salvador R. G. Balestra
_symmetry_space_group_name_H-M     'P 1             '
_symmetry_Int_Tables_number        1

loop_
_symmetry_equiv_pos_site_id
_symmetry_equiv_pos_as_xyz
_cell_length_a                       17.2156
_cell_length_b                        7.6371
_cell_length_c                       10.2667
_cell_angle_alpha                   90.6959
_cell_angle_beta                    90.0313
_cell_angle_gamma                   89.0772

loop_
_atom_site_label
_atom_site_type_symbol
_atom_site_fract_x
_atom_site_fract_y
_atom_site_fract_z
_atom_site_charge
  Ge     Ge        0.052090000000021    0.000000000000000    0.372269999999958  0.0000
  Ge     Ge        0.457332622653017    0.966303717565410    0.367070388749019  0.0000
  Ge     Ge        0.154931096868590    0.313865200200036    0.279849733858553  0.0000
  Ge     Ge        0.337253830536075    0.248741660559375    0.965434601809458  0.0000
  Si     Si        0.957707616035985    0.960018035054270    0.637487296263863  0.0000
  Si     Si        0.559086034497366    0.964834161621581    0.630435946730577  0.0000
  Si     Si        0.562167040261542    0.980272481361611    0.115225340963472  0.0000
  Si     Si        0.946359254473304    0.968457523271864    0.122932970347443  0.0000
  Si     Si        0.451453226802689    0.960260417057075    0.878333524406570  0.0000
  Si     Si        0.061509384521380    0.981434769287974    0.890401741929898  0.0000
  Si     Si        0.354285397696353    0.660251637144109    0.264057774067594  0.0000
  Si     Si        0.849627451522188    0.266514049021429    0.708940986922367  0.0000
  Si     Si        0.666337908166406    0.661588906785981    0.702028205705820  0.0000
  Si     Si        0.845209510447606    0.668547246926727    0.708151011216115  0.0000
  Si     Si        0.670261881308328    0.260094860444024    0.705279985642338  0.0000
  Si     Si        0.176732812450356    0.717745884681050    0.268422244164775  0.0000
  Si     Si        0.335286802273490    0.254503239279685    0.273503434450050  0.0000
  Si     Si        0.669061749630195    0.269061990292444    0.009793475054871  0.0000
  Si     Si        0.840899013893860    0.675615217052710    0.012651979976517  0.0000
  Si     Si        0.176084889850916    0.692640060775074    0.962567622485998  0.0000
  Si     Si        0.355417757994305    0.652980386437372    0.963551076871942  0.0000
  Si     Si        0.156249424573045    0.297535220082581    0.966141021972512  0.0000
  Si     Si        0.661999113835823    0.668057271150919    0.007042071249761  0.0000
  Si     Si        0.848312480174587    0.276199020962119    0.013191932928616  0.0000
  O1     O1        0.084203290711036    0.209716021937185    0.363619758683630  0.0000
  O3     O3        0.415310658581401    0.763898561272157    0.349357634102203  0.0000
  O2     O2        0.906216093190726    0.139032696628635    0.625955605776050  0.0000
  O2     O2        0.611151788315176    0.786694272475282    0.616688945060707  0.0000
  O2     O2        0.900065456156937    0.795067599746450    0.627425168375615  0.0000
  O2     O2        0.616833694620904    0.129900276446194    0.622699564571045  0.0000
  O3     O3        0.134944084059885    0.876131737805829    0.341475572076165  0.0000
  O3     O3        0.389212838595542    0.132466927866536    0.361051050226601  0.0000
  O3     O3        0.020226758938263    0.949748963396227    0.525548041134539  0.0000
  O3     O3        0.495101542467401    0.975373502534213    0.521764524262703  0.0000
  O3     O3        0.975469257213314    0.959578485770806    0.268868450395035  0.0000
  O3     O3        0.533770218494187    0.989947329771294    0.261519529281403  0.0000
  O2     O2        0.001942107925918    0.955282376753100    0.774401363712172  0.0000
  O2     O2        0.516260528850157    0.966632580870867    0.769130828152429  0.0000
  O2     O2        0.620728107729139    0.139644836003340    0.096963046958964  0.0000
  O2     O2        0.888401898942300    0.808506337589938    0.100808530282862  0.0000
  O3     O3        0.385246007033313    0.106430387649359    0.861596113707848  0.0000
  O2     O2        0.131216355728708    0.837450548460675    0.877170568796849  0.0000
  O2     O2        0.411802930478989    0.769637834172471    0.876396662654567  0.0000
  O2     O2        0.095513568287129    0.177221656092897    0.886300899396279  0.0000
  O2     O2        0.604891891278116    0.793958172397041    0.088236025240584  0.0000
  O2     O2        0.902827319866177    0.154390124998030    0.100568795631234  0.0000
  O2     O2        0.489101298245213    0.004304516695904    0.019321601733605  0.0000
  O2     O2        0.019795030171431    0.948619261465921    0.027663577113777  0.0000
  O3     O3        0.137943333454056    0.535176322227549    0.303019333155827  0.0000
  O2     O2        0.367720752550906    0.452509844563289    0.274456850883968  0.0000
  O2     O2        0.869958058240003    0.467204571628749    0.678259673974503  0.0000
  O2     O2        0.646349142646495    0.459699260206710    0.671211470734273  0.0000
  O3     O3        0.248302447770551    0.257699727690741    0.328267490716340  0.0000
  O2     O2        0.267136656103863    0.710608163517142    0.310800721671932  0.0000
  O2     O2        0.760704250377195    0.227717020169411    0.670026730706011  0.0000
  O2     O2        0.755782504770936    0.698162227690179    0.666078568951412  0.0000
  O3     O3        0.148432139117708    0.254745274468078    0.117392945931721  0.0000
  O2     O2        0.364797502790436    0.716321343489494    0.113668874107782  0.0000
  O2     O2        0.862497049834172    0.229324254990637    0.861692934858771  0.0000
  O2     O2        0.652013766238459    0.704751286974043    0.854113031726960  0.0000
  O2     O2        0.854037937604385    0.714114507675544    0.860830338831892  0.0000
  O2     O2        0.657665700526576    0.223816546431591    0.857786081838554  0.0000
  O2     O2        0.171390053006520    0.747402676248644    0.113496729458941  0.0000
  O3     O3        0.338305398700919    0.183263221427153    0.125438840625526  0.0000
  O2     O2        0.640308900549588    0.468139255892081    0.038196144923478  0.0000
  O2     O2        0.869373910118522    0.477773119504814    0.043090297586303  0.0000
  O3     O3        0.378510165425127    0.452113820886425    0.947313620370082  0.0000
  O2     O2        0.136779116904173    0.503372513021902    0.941356686899082  0.0000
  O2     O2        0.758905159838578    0.245033085776376    0.048880557713618  0.0000
  O2     O2        0.750582696896020    0.701796520927636    0.048668100919411  0.0000
  O3     O3        0.242046089628866    0.256926723125323    0.914927428063158  0.0000
  O2     O2        0.265911469810286    0.683018940399141    0.918400718897135  0.0000
