data_c00021.vasp
_audit_creation_method             Generated by GULP
_audit_author_name                 Salvador R. G. Balestra
_symmetry_space_group_name_H-M     'P 1             '
_symmetry_Int_Tables_number        1

loop_
_symmetry_equiv_pos_site_id
_symmetry_equiv_pos_as_xyz
_cell_length_a                       17.1060
_cell_length_b                        7.5821
_cell_length_c                       10.3857
_cell_angle_alpha                   90.8894
_cell_angle_beta                    90.2186
_cell_angle_gamma                   89.6492

loop_
_atom_site_label
_atom_site_type_symbol
_atom_site_fract_x
_atom_site_fract_y
_atom_site_fract_z
_atom_site_charge
  Ge     Ge        0.052090000000021    0.000000000000000    0.372269999999958  0.0000
  Ge     Ge        0.455003836996937    0.013389238220473    0.394821431902090  0.0000
  Ge     Ge        0.562004661544424    0.032518424920382    0.143600680282349  0.0000
  Ge     Ge        0.652981268976487    0.357978290381937    0.040356501820334  0.0000
  Si     Si        0.954245924149631    0.992250889919604    0.636249227617975  0.0000
  Si     Si        0.553878018885691    0.009903740023628    0.656869513435018  0.0000
  Si     Si        0.950478834419920    0.014393208177576    0.111330709302918  0.0000
  Si     Si        0.448929418200198    0.999245416600312    0.905058809682037  0.0000
  Si     Si        0.063112011974553    0.995074998171872    0.877376726774338  0.0000
  Si     Si        0.173341650563324    0.277770579757384    0.285016199854046  0.0000
  Si     Si        0.333694534988542    0.729838284698704    0.286231200081114  0.0000
  Si     Si        0.835233030679410    0.284991387046011    0.734054273402648  0.0000
  Si     Si        0.673463738068487    0.726733701592425    0.725062689830122  0.0000
  Si     Si        0.852909813578268    0.687452897394398    0.724072863040771  0.0000
  Si     Si        0.657519650753426    0.320460287952087    0.733371172523562  0.0000
  Si     Si        0.154285674297277    0.684976327951299    0.285191301113340  0.0000
  Si     Si        0.353533501763704    0.322973109930447    0.287510670479454  0.0000
  Si     Si        0.858146836546441    0.694400878265530    0.023937707686926  0.0000
  Si     Si        0.353991603889760    0.317627971303234    0.989654858816032  0.0000
  Si     Si        0.154810124841339    0.681534478873000    0.986534590450363  0.0000
  Si     Si        0.335662115436021    0.718932041896913    0.986828071855929  0.0000
  Si     Si        0.172616020394078    0.278638688762907    0.986357815832685  0.0000
  Si     Si        0.678176992698432    0.758279721208153    0.025283682531075  0.0000
  Si     Si        0.834529435335408    0.303138093658687    0.037256524262770  0.0000
  O3     O3        0.127475979351356    0.151591334656198    0.377554709910693  0.0000
  O3     O3        0.381634416001729    0.860753802645999    0.374988137527118  0.0000
  O2     O2        0.889175903933211    0.141518733215279    0.663998978016151  0.0000
  O2     O2        0.620200570397653    0.856960749149466    0.640150930564891  0.0000
  O2     O2        0.913017203025432    0.800731395121303    0.640766398870888  0.0000
  O2     O2        0.596432810893426    0.200034716726283    0.652646273590394  0.0000
  O3     O3        0.093299439174508    0.791625137452535    0.371290050730685  0.0000
  O3     O3        0.415017672372541    0.221205521529397    0.373046127878455  0.0000
  O3     O3        0.987970517011931    0.022987887877596    0.496765047363473  0.0000
  O3     O3        0.488783185641294    0.996571179874431    0.549264839297865  0.0000
  O3     O3        0.001862705802889    0.046916291376697    0.234409358079230  0.0000
  O1     O1        0.532635200489894    0.982518484081899    0.294732213472791  0.0000
  O2     O2        0.027080480613288    0.003173524645780    0.735153449502232  0.0000
  O2     O2        0.509365009174998    0.979852011073166    0.790390591478096  0.0000
  O1     O1        0.585422689995521    0.250424376631409    0.129141339314345  0.0000
  O2     O2        0.915079570478474    0.816782058279854    0.109122058597648  0.0000
  O2     O2        0.411234308109707    0.196560138795372    0.902992427830990  0.0000
  O2     O2        0.097713045988060    0.798615060400282    0.899006708211039  0.0000
  O2     O2        0.380076451102050    0.853173707948076    0.894652855606663  0.0000
  O2     O2        0.131797855300849    0.139487377887743    0.890310908985197  0.0000
  O3     O3        0.648520455630347    0.922893182059324    0.105973680557707  0.0000
  O2     O2        0.880167288788706    0.156015047432570    0.116362068355417  0.0000
  O3     O3        0.491340757585611    0.960565805484272    0.038048402117372  0.0000
  O2     O2        0.997874416291390    0.046688565007937    0.980864787300640  0.0000
  O2     O2        0.144512337307028    0.478207367245441    0.308847059124918  0.0000
  O2     O2        0.362860116138347    0.531087763657828    0.312024998257181  0.0000
  O2     O2        0.867746472618856    0.479139472089825    0.700577906562867  0.0000
  O2     O2        0.642116388685146    0.527429786665988    0.706267918051226  0.0000
  O2     O2        0.265369950533056    0.262627158719418    0.317039206501059  0.0000
  O2     O2        0.242103744674322    0.746290121692013    0.319709596565827  0.0000
  O2     O2        0.745344272089000    0.269231626930412    0.686791651827928  0.0000
  O2     O2        0.764151937807906    0.735811251578284    0.682617437014769  0.0000
  O2     O2        0.158811265575358    0.225403622485254    0.134583654252002  0.0000
  O2     O2        0.346970219613788    0.775251770220805    0.136250978187994  0.0000
  O2     O2        0.833790920014778    0.252912633188445    0.885969785350241  0.0000
  O2     O2        0.668107310412920    0.790402248955997    0.872775241000462  0.0000
  O2     O2        0.869242289036073    0.736925350626688    0.873250466083700  0.0000
  O3     O3        0.644622343401204    0.284050218189121    0.882396457780769  0.0000
  O2     O2        0.137496071972684    0.730610035615075    0.135416234368496  0.0000
  O2     O2        0.373277737026017    0.274454903097197    0.138299122022806  0.0000
  O3     O3        0.632664307410279    0.580047932112365    0.057809430711750  0.0000
  O2     O2        0.878598700127244    0.491593153246123    0.054247665517787  0.0000
  O2     O2        0.370389531043737    0.522414850723838    0.961824591286638  0.0000
  O2     O2        0.138508500690463    0.474550360384710    0.960339074554066  0.0000
  O3     O3        0.747746090071448    0.315774186418581    0.090359168494753  0.0000
  O2     O2        0.768704201414311    0.728734751568038    0.061231017878516  0.0000
  O2     O2        0.264546836260466    0.273266829299780    0.956461835467092  0.0000
  O2     O2        0.244180451940621    0.723972217411546    0.951513982988147  0.0000
