data_c00014.vasp
_audit_creation_method             Generated by GULP
_audit_author_name                 Salvador R. G. Balestra
_symmetry_space_group_name_H-M     'P 1             '
_symmetry_Int_Tables_number        1

loop_
_symmetry_equiv_pos_site_id
_symmetry_equiv_pos_as_xyz
_cell_length_a                       16.9353
_cell_length_b                        7.5503
_cell_length_c                       10.6510
_cell_angle_alpha                   89.9998
_cell_angle_beta                    90.0001
_cell_angle_gamma                   90.2705

loop_
_atom_site_label
_atom_site_type_symbol
_atom_site_fract_x
_atom_site_fract_y
_atom_site_fract_z
_atom_site_charge
  Ge     Ge        0.052090000000021    0.000000000000000    0.372269999999958  0.0000
  Ge     Ge        0.458160607213420    0.979563907064234    0.372277157957452  0.0000
  Ge     Ge        0.562987030074337    0.977469184630417    0.115303641290873  0.0000
  Ge     Ge        0.947262796797244    0.002094672487436    0.115291188622700  0.0000
  Si     Si        0.957103588653074    0.001483192951312    0.637292601875559  0.0000
  Si     Si        0.553145539882891    0.978092268437478    0.637300053201931  0.0000
  Si     Si        0.448230303349029    0.988236873946439    0.882542651764494  0.0000
  Si     Si        0.062019151166364    0.991339895000485    0.882529439958331  0.0000
  Si     Si        0.153184643335022    0.311975450380114    0.272515261581109  0.0000
  Si     Si        0.357065485393126    0.667591958646585    0.272515623043028  0.0000
  Si     Si        0.856105923648748    0.312310734379229    0.720268633233181  0.0000
  Si     Si        0.654144022102467    0.667261491391045    0.720266853043972  0.0000
  Si     Si        0.835186201803487    0.718389386999843    0.720690793714627  0.0000
  Si     Si        0.675062477230778    0.261182683635185    0.720686969387120  0.0000
  Si     Si        0.175429302017686    0.721017229963172    0.270696027904836  0.0000
  Si     Si        0.334820212614124    0.258550857125789    0.270693523349426  0.0000
  Si     Si        0.680239603027488    0.256307041723076    0.012664312337099  0.0000
  Si     Si        0.830006673904805    0.723258016721187    0.012669102609012  0.0000
  Si     Si        0.335930243787319    0.265461460795608    0.980280222363214  0.0000
  Si     Si        0.174317196557408    0.714114364205923    0.980283524849694  0.0000
  Si     Si        0.357896000488588    0.668490690090482    0.982957608524599  0.0000
  Si     Si        0.152352186935549    0.311083600975711    0.982956614931934  0.0000
  Si     Si        0.649052647120012    0.651461636125648    0.011980541827156  0.0000
  Si     Si        0.861195063751879    0.328104380636586    0.011981090764899  0.0000
  O3     O3        0.091851471316211    0.210769831229380    0.358797251324341  0.0000
  O3     O3        0.418399234276273    0.768794706356690    0.358797524345730  0.0000
  O2     O2        0.917459032382949    0.196664690979058    0.639214789840888  0.0000
  O2     O2        0.592790681027729    0.782910482995700    0.639214099737773  0.0000
  O2     O2        0.886748711051443    0.855870516825904    0.640223047175022  0.0000
  O2     O2        0.623502006949914    0.123704649401569    0.640211806059576  0.0000
  O3     O3        0.128812437716777    0.850836604335040    0.359446759379946  0.0000
  O3     O3        0.381439385641366    0.128727340785380    0.359438316553918  0.0000
  O3     O3        0.008464254804189    0.975394790370557    0.515486828905719  0.0000
  O3     O3        0.501765353621064    0.004174263853622    0.515511625756291  0.0000
  O1     O1        0.981555707505319    0.963819295276992    0.261692304407833  0.0000
  O1     O1        0.528707556795704    0.015729242640939    0.261716389540079  0.0000
  O2     O2        0.016584933208501    0.974525385852644    0.752822963766703  0.0000
  O2     O2        0.493679656065659    0.005060082299412    0.752850280597430  0.0000
  O3     O3        0.647291448511925    0.106107219930268    0.100340726020962  0.0000
  O3     O3        0.862957306152427    0.873456403616435    0.100343404505738  0.0000
  O2     O2        0.375128696306205    0.126821748208462    0.885295318778798  0.0000
  O2     O2        0.135120154457173    0.852755657119014    0.885297512985270  0.0000
  O2     O2        0.415620065255736    0.786631212891487    0.897153243101095  0.0000
  O2     O2        0.094626942535470    0.192945028699040    0.897153675664042  0.0000
  O3     O3        0.587873734743184    0.756915814460921    0.095621319068196  0.0000
  O3     O3        0.922372169858368    0.222648105734088    0.095624971260287  0.0000
  O3     O3        0.500931044829810    0.047338767967914    0.998705723279536  0.0000
  O3     O3        0.009304366007583    0.932233957317184    0.998672975482095  0.0000
  O2     O2        0.145907448652550    0.520816044936894    0.295104633999806  0.0000
  O2     O2        0.364342355871531    0.458750862038526    0.295105002978098  0.0000
  O2     O2        0.867845305080821    0.520898444712498    0.693411378089993  0.0000
  O2     O2        0.642404031436055    0.458674618192057    0.693407966499704  0.0000
  O2     O2        0.241797543692594    0.245548332763437    0.300228207657550  0.0000
  O2     O2        0.268452456468934    0.734018974241284    0.300226883292662  0.0000
  O2     O2        0.767238313857779    0.253794977069689    0.682286768936184  0.0000
  O2     O2        0.743011235666730    0.725777433107592    0.682283407804272  0.0000
  O2     O2        0.131586472795634    0.263920762385032    0.127581290643546  0.0000
  O2     O2        0.378664013388151    0.715648218981547    0.127582112413303  0.0000
  O2     O2        0.874169093330571    0.273531050826392    0.866185588380087  0.0000
  O2     O2        0.636082755796266    0.706037801712716    0.866184401957563  0.0000
  O2     O2        0.841719968543399    0.772879663441609    0.866126836013273  0.0000
  O2     O2        0.668523458768486    0.206686491827511    0.866122171152715  0.0000
  O2     O2        0.159457783989862    0.771640566747795    0.124879495395827  0.0000
  O2     O2        0.350788256691888    0.207934084152981    0.124876250054094  0.0000
  O2     O2        0.635249887544794    0.442888745972485    0.034469191218906  0.0000
  O2     O2        0.874996892084719    0.536676296967475    0.034472582923127  0.0000
  O2     O2        0.372511386696497    0.461172801697388    0.956342943077747  0.0000
  O2     O2        0.137736056925822    0.518403023954540    0.956345907383461  0.0000
  O2     O2        0.771856099405575    0.277679919033080    0.047628069285685  0.0000
  O2     O2        0.738390694511261    0.701884417315138    0.047636361601038  0.0000
  O2     O2        0.242812416391222    0.265555421435877    0.953134862014304  0.0000
  O2     O2        0.267435048629520    0.714019876851466    0.953140855448337  0.0000
