data_c00098.vasp
_audit_creation_method             Generated by GULP
_audit_author_name                 Salvador R. G. Balestra
_symmetry_space_group_name_H-M     'P 1             '
_symmetry_Int_Tables_number        1

loop_
_symmetry_equiv_pos_site_id
_symmetry_equiv_pos_as_xyz
_cell_length_a                       17.3136
_cell_length_b                        7.6442
_cell_length_c                       10.2519
_cell_angle_alpha                   90.0578
_cell_angle_beta                    91.6308
_cell_angle_gamma                   89.8368

loop_
_atom_site_label
_atom_site_type_symbol
_atom_site_fract_x
_atom_site_fract_y
_atom_site_fract_z
_atom_site_charge
  Ge     Ge        0.052090000000021    0.000000000000000    0.372269999999958  0.0000
  Ge     Ge        0.943408522650434    0.989481613051079    0.628479516134905  0.0000
  Ge     Ge        0.171614836494845    0.288933092903959    0.298274832548093  0.0000
  Ge     Ge        0.849752568947556    0.674974723917716    0.040549356535767  0.0000
  Si     Si        0.456411516688946    0.005578076986852    0.372864360705613  0.0000
  Si     Si        0.545774886696289    0.003558089190562    0.644049893213126  0.0000
  Si     Si        0.559814941299878    0.991729069991236    0.124080726887702  0.0000
  Si     Si        0.951867371033352    0.986957550233749    0.109120063403871  0.0000
  Si     Si        0.440931971524607    0.998800709063867    0.886319920221569  0.0000
  Si     Si        0.059081188039368    0.993257780051630    0.871845236968956  0.0000
  Si     Si        0.342400944993780    0.715448398877977    0.286137482527957  0.0000
  Si     Si        0.828203707710478    0.282313538121581    0.727869949190694  0.0000
  Si     Si        0.660806166381595    0.708033547529850    0.739934663309742  0.0000
  Si     Si        0.837089722969468    0.689882472968396    0.732029179333153  0.0000
  Si     Si        0.651035582819766    0.306619130346347    0.732516471201164  0.0000
  Si     Si        0.162370180587018    0.700043953638840    0.288973033573988  0.0000
  Si     Si        0.352014697524827    0.313626609223024    0.294250339627506  0.0000
  Si     Si        0.657456606571159    0.301497370861764    0.037062136008323  0.0000
  Si     Si        0.343324227452201    0.308260714791522    0.986906981672337  0.0000
  Si     Si        0.157168873254644    0.689072295685129    0.987063530066560  0.0000
  Si     Si        0.336221382552371    0.705800793764524    0.982427291511629  0.0000
  Si     Si        0.165733421009861    0.284556095191685    0.988650546319929  0.0000
  Si     Si        0.669222978775581    0.696658446114951    0.047405176391186  0.0000
  Si     Si        0.835811862305017    0.269282046118571    0.030273019568107  0.0000
  O1     O1        0.115725787638606    0.168870356622849    0.397129510676689  0.0000
  O2     O2        0.391926180562415    0.853653592250667    0.370199077591633  0.0000
  O3     O3        0.880964284103618    0.164951673924563    0.639548326485160  0.0000
  O2     O2        0.604705998409356    0.843370868529608    0.666524993961428  0.0000
  O3     O3        0.893651670480950    0.796337793109263    0.642856582197135  0.0000
  O2     O2        0.591160664078424    0.187250350996433    0.651061546032158  0.0000
  O3     O3        0.109020702227619    0.813751271920372    0.378733126267707  0.0000
  O2     O2        0.415460681109344    0.195348810624457    0.370382347135304  0.0000
  O1     O1        0.976935515494727    0.991958295488980    0.473080719507920  0.0000
  O2     O2        0.508524833058226    0.984681563428972    0.501575428695709  0.0000
  O3     O3        0.015127911738698    0.034795169631948    0.215581067120905  0.0000
  O2     O2        0.510879942787267    0.983655491657189    0.251613884716094  0.0000
  O3     O3        0.026455175350446    0.001928828045294    0.725470786806188  0.0000
  O2     O2        0.477065010718146    0.998647804719514    0.745194758762205  0.0000
  O2     O2        0.604970036514020    0.175715792646534    0.121783488073056  0.0000
  O3     O3        0.917061844674099    0.794315150877825    0.129453279835719  0.0000
  O2     O2        0.398333285755372    0.183711135843021    0.905584796096104  0.0000
  O2     O2        0.102867826647263    0.807573027541641    0.893728029305401  0.0000
  O2     O2        0.380183385730408    0.839805383865246    0.890960438297678  0.0000
  O2     O2        0.116166126422643    0.157127807474349    0.894771724570178  0.0000
  O2     O2        0.620140402237769    0.831880717459422    0.130584096868961  0.0000
  O2     O2        0.879382824179437    0.121235023806497    0.114422568981243  0.0000
  O2     O2        0.506874380410567    0.968517021275814    0.995434420947532  0.0000
  O2     O2        0.986580211559705    0.004736806194369    0.965215355974454  0.0000
  O3     O3        0.142019260338457    0.501615810443042    0.314279411707552  0.0000
  O2     O2        0.370586787516288    0.518493694847766    0.318811396827790  0.0000
  O2     O2        0.853558741505349    0.483695038851474    0.715370193462525  0.0000
  O2     O2        0.631872362491871    0.510951783928976    0.708761479332999  0.0000
  O3     O3        0.268037128046793    0.269474866259827    0.343809607089817  0.0000
  O2     O2        0.252933679620316    0.736469860901882    0.321506773692427  0.0000
  O2     O2        0.737657446287935    0.264105230676966    0.687400361900706  0.0000
  O2     O2        0.747810717126935    0.732158996979230    0.690769897192578  0.0000
  O3     O3        0.159799956179741    0.224451346930302    0.136630529279276  0.0000
  O2     O2        0.352374718839752    0.756244784861058    0.133268238576090  0.0000
  O2     O2        0.840099150856788    0.220864100685002    0.877395252824530  0.0000
  O2     O2        0.662562172477649    0.744409673218353    0.894287649135071  0.0000
  O3     O3        0.853543728469595    0.744466676552020    0.880897738807031  0.0000
  O2     O2        0.642647062827375    0.259571251294276    0.884530562674081  0.0000
  O2     O2        0.144887911402547    0.747886382177145    0.136218503427801  0.0000
  O2     O2        0.354825438073358    0.269926674248365    0.140273016498594  0.0000
  O2     O2        0.635547205403517    0.501576352757589    0.068904984756057  0.0000
  O3     O3        0.873607906438587    0.456839031467099    0.056594542565857  0.0000
  O2     O2        0.365602277370009    0.508668970432629    0.955680436570687  0.0000
  O2     O2        0.135096928515882    0.484643913015518    0.970696110963157  0.0000
  O2     O2        0.747284357531570    0.271499375175471    0.074160350149732  0.0000
  O3     O3        0.757360434630153    0.705566822374446    0.095236105333547  0.0000
  O2     O2        0.254493911036214    0.273747597676445    0.945104256052478  0.0000
  O2     O2        0.245344992266407    0.719169515020410    0.948281334850062  0.0000
