data_c00065.vasp
_audit_creation_method             Generated by GULP
_audit_author_name                 Salvador R. G. Balestra
_symmetry_space_group_name_H-M     'P 1             '
_symmetry_Int_Tables_number        1

loop_
_symmetry_equiv_pos_site_id
_symmetry_equiv_pos_as_xyz
_cell_length_a                       17.1224
_cell_length_b                        7.5880
_cell_length_c                       10.3355
_cell_angle_alpha                   89.5332
_cell_angle_beta                    89.5878
_cell_angle_gamma                   90.2000

loop_
_atom_site_label
_atom_site_type_symbol
_atom_site_fract_x
_atom_site_fract_y
_atom_site_fract_z
_atom_site_charge
  Ge     Ge        0.052090000000021    0.000000000000000    0.372269999999958  0.0000
  Ge     Ge        0.453372980222700    0.986357919705578    0.380383600747519  0.0000
  Ge     Ge        0.677532020794465    0.245422285006179    0.035135911716863  0.0000
  Ge     Ge        0.651929507644395    0.656994804642719    0.043595179199181  0.0000
  Si     Si        0.956537159818798    0.006322935056252    0.640217608318175  0.0000
  Si     Si        0.558847073513401    0.988283116306095    0.638212616391130  0.0000
  Si     Si        0.558078009946584    0.971988322151579    0.126561931442996  0.0000
  Si     Si        0.952725381458229    0.990249010701325    0.110442181624381  0.0000
  Si     Si        0.452689569845433    0.992711920600401    0.884989822522248  0.0000
  Si     Si        0.067483624374526    0.998045312752129    0.876162877927697  0.0000
  Si     Si        0.154739977065108    0.313461476114426    0.286138596732286  0.0000
  Si     Si        0.353047821999021    0.674881566025880    0.289919656304953  0.0000
  Si     Si        0.853215870359250    0.313011723921026    0.730523439101544  0.0000
  Si     Si        0.660728557334075    0.683241039869646    0.737420492333054  0.0000
  Si     Si        0.837793646001664    0.713547008293798    0.737382125521631  0.0000
  Si     Si        0.675860777602789    0.273366136038718    0.729203013813267  0.0000
  Si     Si        0.172787486923073    0.719101474574875    0.284482575161554  0.0000
  Si     Si        0.334625217809193    0.269499101347090    0.291692400851438  0.0000
  Si     Si        0.834216836023354    0.703725389839594    0.042053315081831  0.0000
  Si     Si        0.340579809974054    0.275164363991712    0.991548700381700  0.0000
  Si     Si        0.176185292310569    0.713866647450275    0.984617433898427  0.0000
  Si     Si        0.357364059682434    0.678760436436707    0.990970951456487  0.0000
  Si     Si        0.159699816591305    0.310473219487255    0.986667066741389  0.0000
  Si     Si        0.857832341155705    0.310842168284716    0.035661861481866  0.0000
  O3     O3        0.093696294573642    0.207396829499684    0.372752147169024  0.0000
  O3     O3        0.410673866036201    0.780042690657597    0.380710859453130  0.0000
  O2     O2        0.916413414496754    0.197526163599413    0.653850034647822  0.0000
  O2     O2        0.600916509449236    0.799061608941698    0.652652204988545  0.0000
  O2     O2        0.892206328492589    0.856435343897596    0.668113494436398  0.0000
  O2     O2        0.621384637352346    0.147665532773977    0.643636390896650  0.0000
  O3     O3        0.126941617759754    0.847378905314990    0.377365332037726  0.0000
  O3     O3        0.379613988588476    0.141269023612387    0.386708042739202  0.0000
  O3     O3        0.986666238024047    0.980596490335531    0.496548006400278  0.0000
  O3     O3        0.520388289168596    0.000498668496128    0.499763456766600  0.0000
  O3     O3        0.003303618785519    0.952390927209462    0.233192122130142  0.0000
  O3     O3        0.503159828447859    0.033104366760958    0.239673634625079  0.0000
  O2     O2        0.031531039381379    0.991178968599405    0.733541930800492  0.0000
  O2     O2        0.488901170326869    0.009151383352323    0.742473010153361  0.0000
  O3     O3        0.639758524148864    0.077091255084693    0.126571092928822  0.0000
  O2     O2        0.879489717663164    0.856397519407583    0.116257858669539  0.0000
  O2     O2        0.385880975932692    0.140626509482715    0.899596297264765  0.0000
  O2     O2        0.134469418580016    0.849766819323845    0.887989293256856  0.0000
  O2     O2        0.415233583965817    0.797373240179270    0.903457943427209  0.0000
  O2     O2        0.104289385994975    0.192142121653255    0.897554163392955  0.0000
  O3     O3        0.581663629692977    0.767963673265377    0.131766835623060  0.0000
  O2     O2        0.921699046035246    0.191671549687722    0.108508956679257  0.0000
  O2     O2        0.519500741826162    0.027839448710857    0.989084019476281  0.0000
  O2     O2        0.000352688273341    0.952349440541458    0.979251795517476  0.0000
  O2     O2        0.142483506281017    0.520156452363979    0.307695469132482  0.0000
  O2     O2        0.364639704856082    0.468070814534593    0.314183348760631  0.0000
  O2     O2        0.871805974966412    0.519580962333852    0.706343907109991  0.0000
  O2     O2        0.644041346813363    0.473971065230228    0.722139733179981  0.0000
  O2     O2        0.242580847453317    0.257235957460650    0.322603482697084  0.0000
  O2     O2        0.264185594178994    0.731212411376307    0.318338291183600  0.0000
  O2     O2        0.766083090750890    0.269468603882716    0.679747430618248  0.0000
  O2     O2        0.748741229937810    0.726907849884525    0.687092273751527  0.0000
  O2     O2        0.140158803961444    0.263042896977637    0.135854787862798  0.0000
  O2     O2        0.373793499011812    0.725893243306762    0.140483145458915  0.0000
  O2     O2        0.859023603477552    0.268361006729563    0.882507994994321  0.0000
  O3     O3        0.647735654498345    0.733126036328736    0.885265700196177  0.0000
  O2     O2        0.833256638827526    0.748487311427631    0.889646171135624  0.0000
  O3     O3        0.674353338881941    0.197639190718263    0.872867678108886  0.0000
  O2     O2        0.160806764328837    0.770174985618194    0.133015880534373  0.0000
  O2     O2        0.350240704284045    0.218455527325282    0.141490379652175  0.0000
  O1     O1        0.629593460115366    0.440313224284144    0.059408729868606  0.0000
  O2     O2        0.877844104363184    0.515707257045597    0.062364686240211  0.0000
  O2     O2        0.374399938483157    0.472367308533865    0.967111230307746  0.0000
  O2     O2        0.143522798765245    0.516876892720052    0.959395675753707  0.0000
  O3     O3        0.772200829380598    0.270076139487729    0.087756257867758  0.0000
  O3     O3        0.746883629362991    0.691755404432668    0.095149407545125  0.0000
  O2     O2        0.249686455839084    0.268240329807340    0.954351294972205  0.0000
  O2     O2        0.268322463942879    0.721186329079293    0.954499524946123  0.0000
