data_c00028.vasp
_audit_creation_method             Generated by GULP
_audit_author_name                 Salvador R. G. Balestra
_symmetry_space_group_name_H-M     'P 1             '
_symmetry_Int_Tables_number        1

loop_
_symmetry_equiv_pos_site_id
_symmetry_equiv_pos_as_xyz
_cell_length_a                       17.3961
_cell_length_b                        7.6712
_cell_length_c                       10.0866
_cell_angle_alpha                   89.4809
_cell_angle_beta                    90.6421
_cell_angle_gamma                   90.3895

loop_
_atom_site_label
_atom_site_type_symbol
_atom_site_fract_x
_atom_site_fract_y
_atom_site_fract_z
_atom_site_charge
  Ge     Ge        0.052090000000021    0.000000000000000    0.372269999999958  0.0000
  Ge     Ge        0.452702565586404    0.015687644875795    0.365679573315248  0.0000
  Ge     Ge        0.441856805958917    0.015947640346471    0.885737182597033  0.0000
  Ge     Ge        0.839835910976870    0.315262316967726    0.696678959300626  0.0000
  Si     Si        0.950311305032010    0.018042431699175    0.630792926250688  0.0000
  Si     Si        0.550368822311730    0.016166855799975    0.632879492296886  0.0000
  Si     Si        0.558953687206728    0.004831942734680    0.123135665908897  0.0000
  Si     Si        0.938073833635974    0.009662624432227    0.128810855945446  0.0000
  Si     Si        0.049600230387087    0.007006353788735    0.890608558976857  0.0000
  Si     Si        0.166619241316421    0.297373579789987    0.270526247576467  0.0000
  Si     Si        0.336292283990700    0.722668315414630    0.258235009414776  0.0000
  Si     Si        0.659974180622446    0.718244944855853    0.700750263892278  0.0000
  Si     Si        0.838459521171286    0.723006323603852    0.704468291754736  0.0000
  Si     Si        0.659621841195061    0.318565325002888    0.692666814728160  0.0000
  Si     Si        0.160166545197208    0.701145175595958    0.269668570052110  0.0000
  Si     Si        0.342986683896369    0.314887340104259    0.259599272660292  0.0000
  Si     Si        0.660241223059796    0.310364710813458    0.006161216448510  0.0000
  Si     Si        0.837805088995547    0.708173177062087    0.014474345146746  0.0000
  Si     Si        0.336556639869048    0.320689446629601    0.952668560276141  0.0000
  Si     Si        0.151639750422502    0.700281694250743    0.960433057158517  0.0000
  Si     Si        0.328777775065563    0.720826317594968    0.951006868100130  0.0000
  Si     Si        0.159077472086338    0.303053870637734    0.961376890638153  0.0000
  Si     Si        0.660170068713586    0.707243207982198    0.010982156207357  0.0000
  Si     Si        0.836711859119588    0.307076496855795    0.013739108377519  0.0000
  O3     O3        0.113526722068566    0.175569211358973    0.357957817020140  0.0000
  O3     O3        0.392776033115700    0.838455973347616    0.344553472365957  0.0000
  O3     O3        0.902252899605245    0.193308565614481    0.606161767610166  0.0000
  O2     O2        0.607122048905810    0.850341628205565    0.616758207880127  0.0000
  O2     O2        0.888715553716039    0.859535085807420    0.621015567499155  0.0000
  O2     O2        0.599964325287331    0.194721420101602    0.614611423108253  0.0000
  O3     O3        0.102791530831349    0.810042115959652    0.355834225889141  0.0000
  O3     O3        0.403160814233261    0.208045143469595    0.345541419091479  0.0000
  O3     O3        0.019512756540072    0.998292448097959    0.532688827474239  0.0000
  O3     O3        0.481318451860374    0.008825256282813    0.530016696924184  0.0000
  O3     O3        0.969673737664273    0.010526107209864    0.276859676004031  0.0000
  O3     O3        0.536305036982956    0.009586717171324    0.275784715153672  0.0000
  O2     O2        0.984977325632646    0.022013372331051    0.779470189145233  0.0000
  O3     O3        0.516703233813611    0.010061701356059    0.779694077129521  0.0000
  O2     O2        0.604887609214792    0.179943433866790    0.083412272724844  0.0000
  O2     O2        0.889112260034438    0.833144460637056    0.105690383090226  0.0000
  O3     O3        0.390564669662277    0.207056928303576    0.863276778132369  0.0000
  O2     O2        0.095127138969739    0.824947330860272    0.876427147065643  0.0000
  O3     O3        0.377557596803984    0.845943705621067    0.858943563954431  0.0000
  O2     O2        0.108451515099238    0.169526833355176    0.875459222568344  0.0000
  O2     O2        0.609283222611294    0.833183782651651    0.098152112476153  0.0000
  O2     O2        0.886667984704245    0.181232014237533    0.107421961784548  0.0000
  O3     O3        0.479254308647889    0.996459500958345    0.043841432455758  0.0000
  O2     O2        0.011734001759616    0.015137957188225    0.034519811514012  0.0000
  O2     O2        0.145764963362379    0.497392480485391    0.298857376654878  0.0000
  O2     O2        0.358077304338350    0.520306086011873    0.277649539174962  0.0000
  O3     O3        0.864005181675930    0.530587389927911    0.670250968738939  0.0000
  O2     O2        0.637081228582602    0.520054171489073    0.664314545727418  0.0000
  O2     O2        0.256386841889504    0.265752708526667    0.304388929165621  0.0000
  O2     O2        0.248456393224677    0.751708783727672    0.303682243235049  0.0000
  O3     O3        0.745456789809065    0.283825552677563    0.646606866166017  0.0000
  O2     O2        0.748978328110453    0.751155431367447    0.665971540943842  0.0000
  O2     O2        0.151044537575280    0.254448384052113    0.116100783887639  0.0000
  O2     O2        0.343188599356185    0.777435764277687    0.103713754230708  0.0000
  O3     O3        0.848580870818679    0.259052520358678    0.862194456590785  0.0000
  O2     O2        0.647399149076035    0.752086474280329    0.856478963707531  0.0000
  O2     O2        0.850315949913261    0.757461176777511    0.861193299331770  0.0000
  O2     O2        0.654389689107977    0.277842147741425    0.849615026336151  0.0000
  O2     O2        0.143205344145175    0.744249838823194    0.115139862387236  0.0000
  O2     O2        0.352720632728690    0.263727152249426    0.105489937655495  0.0000
  O2     O2        0.634603330027537    0.507486483918135    0.039081323682663  0.0000
  O2     O2        0.862178053303238    0.507705081983722    0.039428690517688  0.0000
  O2     O2        0.356526079656051    0.523352176817143    0.930540323663184  0.0000
  O2     O2        0.129010397777143    0.499176458779029    0.933331039361780  0.0000
  O2     O2        0.747735724290461    0.280965005534248    0.053332029613051  0.0000
  O2     O2        0.749005003829225    0.734079853455742    0.051743845993093  0.0000
  O2     O2        0.247106398859442    0.286445014239437    0.917208584286588  0.0000
  O2     O2        0.238624583573453    0.735850474325586    0.914981943998232  0.0000
