data_c00037.vasp
_audit_creation_method             Generated by GULP
_audit_author_name                 Salvador R. G. Balestra
_symmetry_space_group_name_H-M     'P 1             '
_symmetry_Int_Tables_number        1

loop_
_symmetry_equiv_pos_site_id
_symmetry_equiv_pos_as_xyz
_cell_length_a                       17.3472
_cell_length_b                        7.6621
_cell_length_c                       10.2479
_cell_angle_alpha                   90.6406
_cell_angle_beta                    90.7119
_cell_angle_gamma                   89.9187

loop_
_atom_site_label
_atom_site_type_symbol
_atom_site_fract_x
_atom_site_fract_y
_atom_site_fract_z
_atom_site_charge
  Ge     Ge        0.052090000000021    0.000000000000000    0.372269999999958  0.0000
  Ge     Ge        0.459290436443208    0.015311537863222    0.363192149768017  0.0000
  Ge     Ge        0.174349326572752    0.288148199684900    0.268934925182288  0.0000
  Ge     Ge        0.844002721546781    0.688266545717776    0.698244078908312  0.0000
  Si     Si        0.952703748070560    0.990327180084838    0.633026847164968  0.0000
  Si     Si        0.550366034171770    0.996566537795547    0.636455643438026  0.0000
  Si     Si        0.564155366136755    0.007293177435826    0.118026634370203  0.0000
  Si     Si        0.944350548911225    0.003418767267324    0.121574992249383  0.0000
  Si     Si        0.445896732541883    0.009719707436958    0.886833705507942  0.0000
  Si     Si        0.056943554329868    0.001010927963594    0.887007470995677  0.0000
  Si     Si        0.339029601818980    0.725411258792568    0.264963052969427  0.0000
  Si     Si        0.837935887467994    0.280555883720292    0.707661520208535  0.0000
  Si     Si        0.663636575665040    0.698652488809455    0.699677691973162  0.0000
  Si     Si        0.659410268244795    0.297800458692825    0.708700589153112  0.0000
  Si     Si        0.161757634516573    0.701756987284585    0.268373897126246  0.0000
  Si     Si        0.352004192859903    0.320062135737389    0.265312359288024  0.0000
  Si     Si        0.661302916359943    0.311789929987839    0.013350767142604  0.0000
  Si     Si        0.846019777560901    0.697562930442128    0.010353763965693  0.0000
  Si     Si        0.343966893607765    0.318729848189451    0.957407980950728  0.0000
  Si     Si        0.159153016959522    0.696292953532219    0.964854235738863  0.0000
  Si     Si        0.337313889633244    0.715874591827717    0.960512901517383  0.0000
  Si     Si        0.167297570414641    0.294572893995678    0.958594718290323  0.0000
  Si     Si        0.669090872182801    0.708175889650635    0.007372135324654  0.0000
  Si     Si        0.839298595615162    0.297959300881620    0.012921929878905  0.0000
  O1     O1        0.115583646515214    0.167594010659635    0.361663392854443  0.0000
  O3     O3        0.391040002899983    0.853817949729986    0.348454607578666  0.0000
  O2     O2        0.886024655496918    0.138389839211239    0.627250319475383  0.0000
  O2     O2        0.603784345645869    0.823903011154781    0.625236419939096  0.0000
  O3     O3        0.908689280949545    0.808105993189014    0.611504163085055  0.0000
  O2     O2        0.604280934152205    0.168150928983958    0.627308683035524  0.0000
  O3     O3        0.102578508090171    0.808199668839990    0.354433701261050  0.0000
  O3     O3        0.419733302409204    0.218183699999118    0.336252408669192  0.0000
  O3     O3        0.016866493891303    0.015570597313204    0.527883301013987  0.0000
  O3     O3        0.488403044211495    0.001088902872910    0.523131166731628  0.0000
  O3     O3        0.973740192938686    0.011869041467843    0.268244674087189  0.0000
  O3     O3        0.538261572372749    0.988475876536711    0.265086673274933  0.0000
  O2     O2        0.993271081611200    0.000271428097836    0.774884275843299  0.0000
  O2     O2        0.506878303949640    0.994749329512005    0.773497350866268  0.0000
  O2     O2        0.608054164343204    0.190851975861568    0.100580788126670  0.0000
  O2     O2        0.900633893732508    0.820168969905236    0.098548063039538  0.0000
  O2     O2        0.399970238187375    0.192739705723900    0.875573864699581  0.0000
  O2     O2        0.103999335868942    0.818548209621356    0.878247290741354  0.0000
  O2     O2        0.385594640362773    0.849561478826460    0.874346438445047  0.0000
  O2     O2        0.114808432438186    0.164761648264930    0.870107620207435  0.0000
  O2     O2        0.619774478115978    0.845832758799967    0.087266134474732  0.0000
  O2     O2        0.887646105198761    0.167650853514674    0.101911128797104  0.0000
  O2     O2        0.488333204767077    0.000305955034816    0.026657015421717  0.0000
  O2     O2        0.017017104906913    0.019745552214619    0.027037244929737  0.0000
  O3     O3        0.147599240281798    0.501442433479583    0.293543007812999  0.0000
  O2     O2        0.362791517103451    0.526008672029084    0.292086732700006  0.0000
  O3     O3        0.865905755147096    0.471545737832499    0.672260981078675  0.0000
  O2     O2        0.638323581486820    0.497431642836861    0.674973225876446  0.0000
  O3     O3        0.269449228268931    0.259063198733917    0.315583026520994  0.0000
  O2     O2        0.250018093982365    0.754478207695632    0.303644728174402  0.0000
  O2     O2        0.747611922569893    0.260045056996410    0.670376220714358  0.0000
  O3     O3        0.749558448717721    0.725851408133826    0.649939910360392  0.0000
  O3     O3        0.161909307281784    0.233247273216565    0.106335650686465  0.0000
  O2     O2        0.349939020134677    0.765627585157943    0.112049055812755  0.0000
  O2     O2        0.849038073379325    0.246820228299895    0.861821600486587  0.0000
  O2     O2        0.662764235052299    0.743864509735654    0.853735393958011  0.0000
  O3     O3        0.855739014273644    0.744720626425390    0.860662806399612  0.0000
  O2     O2        0.647880616326189    0.262233381361992    0.861898134750956  0.0000
  O2     O2        0.147363131777462    0.747118816076966    0.115893405927263  0.0000
  O2     O2        0.352744507749425    0.278881625795881    0.110215127549072  0.0000
  O2     O2        0.638546746288621    0.513728091949374    0.038531994449290  0.0000
  O2     O2        0.869162828652696    0.495758784632981    0.035725599106643  0.0000
  O2     O2        0.366627213309443    0.519332393732335    0.930039290032189  0.0000
  O2     O2        0.137178317420030    0.493468223375437    0.941439611014827  0.0000
  O2     O2        0.750242795118255    0.282153527000053    0.052891620469943  0.0000
  O2     O2        0.757671732073104    0.727348205717139    0.052543063549533  0.0000
  O2     O2        0.255904799733240    0.283635829497575    0.912294735806306  0.0000
  O2     O2        0.247136572054202    0.730070313159700    0.923470489611237  0.0000
