data_c00003.vasp
_audit_creation_method             Generated by GULP
_audit_author_name                 Salvador R. G. Balestra
_symmetry_space_group_name_H-M     'P 1             '
_symmetry_Int_Tables_number        1

loop_
_symmetry_equiv_pos_site_id
_symmetry_equiv_pos_as_xyz
_cell_length_a                       17.4183
_cell_length_b                        7.6680
_cell_length_c                       10.1246
_cell_angle_alpha                   90.0524
_cell_angle_beta                    89.7170
_cell_angle_gamma                   89.9865

loop_
_atom_site_label
_atom_site_type_symbol
_atom_site_fract_x
_atom_site_fract_y
_atom_site_fract_z
_atom_site_charge
  Ge     Ge        0.052090000000021    0.000000000000000    0.372269999999958  0.0000
  Ge     Ge        0.450140181316835    0.993385780305233    0.339870305532122  0.0000
  Ge     Ge        0.949256276401484    0.997897199565490    0.638598847171512  0.0000
  Ge     Ge        0.941372361983148    0.999337301879827    0.123358645776187  0.0000
  Si     Si        0.550887038047228    0.992881354729367    0.600078554893468  0.0000
  Si     Si        0.554221698562155    0.995344601552386    0.078431745934185  0.0000
  Si     Si        0.442997738641559    0.992640968125989    0.841060925744207  0.0000
  Si     Si        0.058363730494156    0.995534918195555    0.889778604745203  0.0000
  Si     Si        0.160068504550599    0.301307730913613    0.261877125495460  0.0000
  Si     Si        0.342255634725112    0.691448522818905    0.261016083893293  0.0000
  Si     Si        0.836274873973561    0.298049331168862    0.697597172636765  0.0000
  Si     Si        0.655366074981378    0.690184514626546    0.698953721988427  0.0000
  Si     Si        0.832246749509653    0.704791712801812    0.697788955189960  0.0000
  Si     Si        0.659822828447086    0.291387921082528    0.699168464631606  0.0000
  Si     Si        0.165670009117054    0.704183412797270    0.260661448912828  0.0000
  Si     Si        0.336814642943138    0.286465666338746    0.261985332556183  0.0000
  Si     Si        0.662480855203214    0.293347536012736    0.009982348913987  0.0000
  Si     Si        0.833223936394291    0.705285758813764    0.002908877140642  0.0000
  Si     Si        0.339359539916604    0.288150302580994    0.954634609906292  0.0000
  Si     Si        0.166304239571019    0.698552564807477    0.951880033023201  0.0000
  Si     Si        0.344138433670123    0.689768937655835    0.953611224179901  0.0000
  Si     Si        0.161379023341102    0.301180478243773    0.953392627744735  0.0000
  Si     Si        0.656247127185860    0.687969718939033    0.009110080827168  0.0000
  Si     Si        0.839029613744948    0.301296124845369    0.003276042970678  0.0000
  O3     O3        0.101789911694412    0.191857644993829    0.347409527857003  0.0000
  O3     O3        0.397811787509845    0.802649624704566    0.351401256725780  0.0000
  O3     O3        0.894171939996915    0.184098419854430    0.612976245600878  0.0000
  O2     O2        0.598608736049907    0.815250384590801    0.619897420321259  0.0000
  O3     O3        0.887801537021000    0.822429604512154    0.611826345215048  0.0000
  O2     O2        0.604682527302324    0.160346814693555    0.622643451070385  0.0000
  O3     O3        0.111355585255273    0.823438084531909    0.346288371863880  0.0000
  O3     O3        0.388059075278562    0.168432005497103    0.354633291450360  0.0000
  O1     O1        0.025586222562753    0.993698546376382    0.535256226858953  0.0000
  O3     O3        0.523216864391651    0.998664449270207    0.451095488237286  0.0000
  O1     O1        0.968521075108498    0.994151477866793    0.285152753506356  0.0000
  O3     O3        0.489313077152358    0.007906360553130    0.184933438516062  0.0000
  O3     O3        0.986037188547186    0.990575694623386    0.796568658959507  0.0000
  O2     O2        0.474216770770540    0.996526342007386    0.691111598774161  0.0000
  O2     O2        0.612463019690806    0.157992005679300    0.093758627067369  0.0000
  O3     O3        0.882650656017257    0.822526550439352    0.097653058319299  0.0000
  O2     O2        0.388030043568532    0.159254504720146    0.862426557768826  0.0000
  O2     O2        0.115251329837853    0.830140986127744    0.865600620380828  0.0000
  O2     O2        0.396914400808377    0.812477229428657    0.863136155158695  0.0000
  O2     O2        0.107626616041127    0.173667022036004    0.868188392026792  0.0000
  O2     O2        0.601938510965250    0.815279991859350    0.093443535115859  0.0000
  O3     O3        0.894694669845123    0.193717350427878    0.094488530036741  0.0000
  O2     O2        0.516568646325732    0.003391537551174    0.933964838690827  0.0000
  O3     O3        0.026522917526346    0.986484885753326    0.038217433188414  0.0000
  O2     O2        0.145372423038170    0.504090611083886    0.292577148615589  0.0000
  O2     O2        0.357073379438959    0.488063196797566    0.287015140995226  0.0000
  O2     O2        0.853523523414821    0.502243850814554    0.677672303263229  0.0000
  O2     O2        0.636552185332120    0.489593205798088    0.662252302900112  0.0000
  O2     O2        0.247676617155764    0.250914924686566    0.295696591344771  0.0000
  O2     O2        0.254460519757351    0.741162974388536    0.295149880510359  0.0000
  O2     O2        0.748184416860758    0.257670425152808    0.657566916652875  0.0000
  O2     O2        0.743168109333479    0.734100010473000    0.659806158352402  0.0000
  O2     O2        0.145567299949813    0.262997968868358    0.107203237842012  0.0000
  O2     O2        0.358557455044436    0.736598907038332    0.106723852933347  0.0000
  O2     O2        0.849656602991148    0.243172349308692    0.850696930324863  0.0000
  O2     O2        0.642834147993585    0.720963841607269    0.854241757302236  0.0000
  O2     O2        0.844874020197848    0.762868865156030    0.850540645743720  0.0000
  O2     O2        0.650863865045708    0.260165144985838    0.854862130661709  0.0000
  O2     O2        0.152640630202382    0.741013886372720    0.105644349606315  0.0000
  O2     O2        0.352527673768618    0.239691207991422    0.107738794031500  0.0000
  O2     O2        0.635377235901918    0.489098873432585    0.046793821380578  0.0000
  O2     O2        0.859027536202799    0.504942653605771    0.018805004290297  0.0000
  O2     O2        0.365431048474718    0.487434358979549    0.926982784588915  0.0000
  O2     O2        0.140302221283387    0.501009325989699    0.918742816227263  0.0000
  O2     O2        0.751174709782921    0.266761881331304    0.047528332095145  0.0000
  O2     O2        0.744269302422181    0.727074745819825    0.044082447169016  0.0000
  O2     O2        0.250119810275185    0.265260454151304    0.918273947962881  0.0000
  O2     O2        0.255672126812295    0.723436185214444    0.915811641904629  0.0000
