data_c00020.vasp
_audit_creation_method             Generated by GULP
_audit_author_name                 Salvador R. G. Balestra
_symmetry_space_group_name_H-M     'P 1             '
_symmetry_Int_Tables_number        1

loop_
_symmetry_equiv_pos_site_id
_symmetry_equiv_pos_as_xyz
_cell_length_a                       17.2530
_cell_length_b                        7.6315
_cell_length_c                       10.2843
_cell_angle_alpha                   90.5239
_cell_angle_beta                    90.2395
_cell_angle_gamma                   90.1531

loop_
_atom_site_label
_atom_site_type_symbol
_atom_site_fract_x
_atom_site_fract_y
_atom_site_fract_z
_atom_site_charge
  Ge     Ge        0.052090000000021    0.000000000000000    0.372269999999958  0.0000
  Ge     Ge        0.451557903589188    0.021144058500532    0.399956180851189  0.0000
  Ge     Ge        0.563833866168466    0.014866620905509    0.150882231742039  0.0000
  Ge     Ge        0.668729051409644    0.719221447527583    0.730419059350773  0.0000
  Si     Si        0.953721156592966    0.992305193207289    0.635515362792557  0.0000
  Si     Si        0.549330673688310    0.005225268598177    0.661104847761860  0.0000
  Si     Si        0.949929123934377    0.005000828770868    0.110442788154444  0.0000
  Si     Si        0.447164996401739    0.004214556562457    0.912941304717790  0.0000
  Si     Si        0.062499000224060    0.996503790567948    0.875330321225086  0.0000
  Si     Si        0.170038667326092    0.285898818082686    0.289161188889798  0.0000
  Si     Si        0.333674494164113    0.729521803444305    0.289038918737280  0.0000
  Si     Si        0.838204656407716    0.285003377085205    0.731922954499010  0.0000
  Si     Si        0.850326016151668    0.686923871293672    0.726859371429167  0.0000
  Si     Si        0.660028747806038    0.304713186704264    0.734390245109652  0.0000
  Si     Si        0.155527595960431    0.690985421786773    0.287251613318475  0.0000
  Si     Si        0.348720483210293    0.325458155603794    0.292193481779411  0.0000
  Si     Si        0.659802772554586    0.325482429244206    0.036097782616430  0.0000
  Si     Si        0.853376018237296    0.687846845239099    0.033417636901157  0.0000
  Si     Si        0.349865870554638    0.318298292824352    0.990335803337385  0.0000
  Si     Si        0.155845933624971    0.686919762529616    0.985243769536942  0.0000
  Si     Si        0.335328291784857    0.717181158535419    0.986146696662531  0.0000
  Si     Si        0.169880725560337    0.285462857394992    0.987248226805328  0.0000
  Si     Si        0.675436000942067    0.728832644339745    0.036345984618256  0.0000
  Si     Si        0.837282817002584    0.294101838285727    0.037488125860311  0.0000
  O3     O3        0.122593455440960    0.161558307105516    0.382133669472636  0.0000
  O3     O3        0.383201089462592    0.859106587007556    0.375886984655595  0.0000
  O2     O2        0.891428523128428    0.145948628740995    0.658185021627362  0.0000
  O3     O3        0.606954196956369    0.843234365692165    0.638225644973034  0.0000
  O2     O2        0.912785499708276    0.803440508244335    0.650847288217060  0.0000
  O2     O2        0.601985281299396    0.180827830783666    0.652977108437776  0.0000
  O3     O3        0.096685267300535    0.798011029564042    0.374961672067831  0.0000
  O3     O3        0.408335617118516    0.222893867287827    0.379435522623438  0.0000
  O3     O3        0.983849218256566    0.012601877038768    0.491081579160322  0.0000
  O3     O3        0.480399536315543    0.009293403228004    0.559796763715425  0.0000
  O3     O3        0.006689919368114    0.036893329421469    0.227048982718307  0.0000
  O1     O1        0.532264120464877    0.001674718646290    0.307110759055904  0.0000
  O2     O2        0.028614486563673    0.006974883658419    0.730009610434447  0.0000
  O2     O2        0.511194351376455    0.986816470329865    0.803136926494242  0.0000
  O3     O3        0.601263656601803    0.221960166411844    0.124917061579244  0.0000
  O2     O2        0.911932129494573    0.810890794537501    0.114650603157280  0.0000
  O2     O2        0.406208931658262    0.195291452528814    0.905431205686933  0.0000
  O2     O2        0.100524451481315    0.805131428445724    0.896168939754556  0.0000
  O2     O2        0.381941943711151    0.851756870681670    0.896391601955440  0.0000
  O2     O2        0.126833233604229    0.148425092001431    0.892777931156970  0.0000
  O3     O3        0.633797364536027    0.856000404513099    0.135445758326481  0.0000
  O2     O2        0.882323417845345    0.150338068877375    0.119802938870776  0.0000
  O3     O3        0.486133268927672    0.973171853567067    0.051308585847549  0.0000
  O2     O2        0.993113539981019    0.031078284141696    0.974106726009819  0.0000
  O2     O2        0.143754079551614    0.485862067014608    0.312296092058633  0.0000
  O2     O2        0.360029310262582    0.531541624538507    0.318276045593633  0.0000
  O2     O2        0.865859231530226    0.481364628804065    0.696645675182984  0.0000
  O3     O3        0.640297137312214    0.504304973044573    0.708676847532412  0.0000
  O2     O2        0.260893270115931    0.267129648245145    0.322543549835197  0.0000
  O2     O2        0.242979314004550    0.750387058481140    0.321991017519749  0.0000
  O2     O2        0.748294636541102    0.261700487307603    0.690095330408898  0.0000
  O3     O3        0.764412237412810    0.736701880943463    0.682795877824077  0.0000
  O2     O2        0.155754741050016    0.234538738201895    0.137309016391237  0.0000
  O2     O2        0.347107796067120    0.769982911029426    0.136971793153728  0.0000
  O2     O2        0.844441400371301    0.251670295068249    0.885046591347979  0.0000
  O3     O3        0.662939772443552    0.791649691732496    0.889582179938269  0.0000
  O2     O2        0.861105462104268    0.724110703708085    0.880290257480078  0.0000
  O2     O2        0.649927906781711    0.260987887612764    0.886993225244432  0.0000
  O2     O2        0.139081447543401    0.735323751411821    0.135515497555681  0.0000
  O2     O2        0.367222436698885    0.279321611016573    0.141412136956229  0.0000
  O2     O2        0.641442382703736    0.531600214824286    0.045815614044662  0.0000
  O2     O2        0.873482831328391    0.486642728272134    0.066334314678672  0.0000
  O2     O2        0.367412201369749    0.521209376145185    0.959020129083005  0.0000
  O2     O2        0.138270986488927    0.481349194726314    0.959509582690832  0.0000
  O2     O2        0.748006981163828    0.288700488107197    0.081356364500588  0.0000
  O2     O2        0.765932808917400    0.729043197914649    0.074882500997806  0.0000
  O2     O2        0.260882234530118    0.275229279788876    0.955931489375580  0.0000
  O2     O2        0.244796287737235    0.727202985196457    0.949701131818065  0.0000
