data_c00008.vasp
_audit_creation_method             Generated by GULP
_audit_author_name                 Salvador R. G. Balestra
_symmetry_space_group_name_H-M     'P 1             '
_symmetry_Int_Tables_number        1

loop_
_symmetry_equiv_pos_site_id
_symmetry_equiv_pos_as_xyz
_cell_length_a                       17.3852
_cell_length_b                        7.6635
_cell_length_c                       10.2396
_cell_angle_alpha                   89.6217
_cell_angle_beta                    90.7626
_cell_angle_gamma                   90.5392

loop_
_atom_site_label
_atom_site_type_symbol
_atom_site_fract_x
_atom_site_fract_y
_atom_site_fract_z
_atom_site_charge
  Ge     Ge        0.052090000000021    0.000000000000000    0.372269999999958  0.0000
  Ge     Ge        0.454056809079368    0.009548072174085    0.371725280556381  0.0000
  Ge     Ge        0.950696273241666    0.021443625295243    0.636985423147296  0.0000
  Ge     Ge        0.840549060793736    0.328098830033636    0.703438967845796  0.0000
  Si     Si        0.546443066643649    0.007738855785042    0.644039218111234  0.0000
  Si     Si        0.561369950311193    0.998061022308457    0.127707278551197  0.0000
  Si     Si        0.940725212589522    0.012972311123074    0.130197401487155  0.0000
  Si     Si        0.443730837571217    0.009390900351766    0.895225470839011  0.0000
  Si     Si        0.053652498735433    0.000735621687276    0.899212393122817  0.0000
  Si     Si        0.164775319069313    0.299737636619227    0.273458680902060  0.0000
  Si     Si        0.339593085930481    0.711267939484217    0.270574965356793  0.0000
  Si     Si        0.651903710147912    0.704315076991776    0.717713953063635  0.0000
  Si     Si        0.830338856612157    0.735587366580731    0.712494700969765  0.0000
  Si     Si        0.660070784376255    0.305187113454129    0.708863908327163  0.0000
  Si     Si        0.163937173782544    0.704724836826038    0.270946742531371  0.0000
  Si     Si        0.340894732305487    0.305502722408921    0.272512737371568  0.0000
  Si     Si        0.666564977620796    0.297577955459444    0.016797945884401  0.0000
  Si     Si        0.835202985494788    0.718062214462263    0.016689411773119  0.0000
  Si     Si        0.338709559162586    0.307669763695316    0.968265888767305  0.0000
  Si     Si        0.160850187281596    0.701371129316064    0.965796970351424  0.0000
  Si     Si        0.337958831044156    0.706779064991987    0.965695621026899  0.0000
  Si     Si        0.161048742138044    0.302698312662520    0.968615112821547  0.0000
  Si     Si        0.657412883336933    0.694249228001750    0.022268287089344  0.0000
  Si     Si        0.843395163541244    0.315605564146239    0.014180865502263  0.0000
  O3     O3        0.108562425131910    0.184641115914784    0.358490292288215  0.0000
  O3     O3        0.397799261915746    0.825689150730135    0.353228642789298  0.0000
  O1     O1        0.905857083371438    0.217672305605835    0.614872445600656  0.0000
  O2     O2        0.596300159580321    0.830893090345939    0.635847963602776  0.0000
  O3     O3        0.875059254728646    0.872374120870921    0.625678100956184  0.0000
  O2     O2        0.603193269308338    0.175139004005951    0.631541530751240  0.0000
  O3     O3        0.105527215577369    0.815036375695317    0.351933124104871  0.0000
  O3     O3        0.399684734049653    0.194882707860824    0.356167123756734  0.0000
  O1     O1        0.022180760582341    0.989124516887365    0.530476565925694  0.0000
  O3     O3        0.483890427957844    0.008938458747120    0.531930059104277  0.0000
  O3     O3        0.969001712970458    0.008996648108891    0.278616779589084  0.0000
  O3     O3        0.533989126835547    0.009800318557935    0.274657509088680  0.0000
  O3     O3        0.987746869941687    0.002083491875026    0.793629949262200  0.0000
  O2     O2        0.505001173044363    0.015400963883704    0.782581355568938  0.0000
  O2     O2        0.618426512997032    0.159076674035503    0.099142536908546  0.0000
  O2     O2        0.884143229651925    0.847935201531771    0.107267895205835  0.0000
  O2     O2        0.390705736470053    0.180935133511367    0.883318782625879  0.0000
  O2     O2        0.106408987206029    0.829147835209202    0.882432348117361  0.0000
  O2     O2        0.390519292897524    0.836246714543837    0.880556435995482  0.0000
  O2     O2        0.107618563134620    0.173459099373892    0.883894158437327  0.0000
  O2     O2        0.604547659791113    0.814422312298637    0.110311241191417  0.0000
  O2     O2        0.898381182022602    0.196381494368188    0.103859689738620  0.0000
  O2     O2        0.486202116811225    0.007536107978372    0.035347699113773  0.0000
  O2     O2        0.016521283046575    0.997489792380274    0.042831756891180  0.0000
  O2     O2        0.147338528339783    0.501687225453085    0.299804725744208  0.0000
  O2     O2        0.357407820724519    0.508971395742285    0.297325113329002  0.0000
  O3     O3        0.861123701282376    0.545115327065234    0.682186841273960  0.0000
  O2     O2        0.631658385631320    0.503656404757092    0.684615287667026  0.0000
  O2     O2        0.253253300186435    0.258326731934611    0.311091310191328  0.0000
  O2     O2        0.251938199669801    0.752363942718820    0.310415021262695  0.0000
  O3     O3        0.745906094278877    0.284520513764986    0.658882149368258  0.0000
  O2     O2        0.739525738186105    0.743909737657613    0.678972562115284  0.0000
  O2     O2        0.150481507481592    0.256636252644184    0.120851284038358  0.0000
  O2     O2        0.349724824726530    0.754959833524006    0.117302359184407  0.0000
  O3     O3        0.853502766349632    0.264734156454685    0.865168382270694  0.0000
  O2     O2        0.641266941496554    0.740797401553691    0.871176467553768  0.0000
  O2     O2        0.843720041643705    0.776211577618730    0.866526389791557  0.0000
  O2     O2        0.658385377374887    0.260324086781436    0.863172119243478  0.0000
  O2     O2        0.151818322136527    0.746142451497843    0.117692118090343  0.0000
  O2     O2        0.351953442071622    0.261129460016122    0.120070430101498  0.0000
  O2     O2        0.636325758153268    0.491519697942135    0.049282949170493  0.0000
  O2     O2        0.865183991580702    0.520029808804554    0.035434593329233  0.0000
  O2     O2        0.363037231294050    0.507936292101342    0.939287729641383  0.0000
  O2     O2        0.135667742868015    0.501340590336330    0.938236976539427  0.0000
  O2     O2        0.755675573531649    0.282261331668632    0.058364239555813  0.0000
  O2     O2        0.746506490593375    0.729312048232985    0.058574166135232  0.0000
  O2     O2        0.249549700480506    0.277941001499166    0.928973042574738  0.0000
  O2     O2        0.249027006784752    0.730992506462522    0.923703119391746  0.0000
