data_c00047.vasp
_audit_creation_method             Generated by GULP
_audit_author_name                 Salvador R. G. Balestra
_symmetry_space_group_name_H-M     'P 1             '
_symmetry_Int_Tables_number        1

loop_
_symmetry_equiv_pos_site_id
_symmetry_equiv_pos_as_xyz
_cell_length_a                       17.2548
_cell_length_b                        7.6578
_cell_length_c                       10.1148
_cell_angle_alpha                   90.4249
_cell_angle_beta                    90.5801
_cell_angle_gamma                   90.4402

loop_
_atom_site_label
_atom_site_type_symbol
_atom_site_fract_x
_atom_site_fract_y
_atom_site_fract_z
_atom_site_charge
  Ge     Ge        0.052090000000021    0.000000000000000    0.372269999999958  0.0000
  Ge     Ge        0.453473565372310    0.027229786634225    0.371077311148580  0.0000
  Ge     Ge        0.170935083139517    0.289167573973059    0.287514655653345  0.0000
  Ge     Ge        0.672161014496092    0.707954897086604    0.049640393722588  0.0000
  Si     Si        0.949959082410837    0.004765434531566    0.627691978660629  0.0000
  Si     Si        0.556632873326560    0.007184378317666    0.631841293125445  0.0000
  Si     Si        0.559643020627283    0.000968492003267    0.115599216456415  0.0000
  Si     Si        0.957030092183093    0.008396640747136    0.102393509676961  0.0000
  Si     Si        0.449242569278291    0.013170528559194    0.874122860171524  0.0000
  Si     Si        0.066678742484470    0.999941922225257    0.859827081698977  0.0000
  Si     Si        0.336407651085803    0.736282999427181    0.286561751236694  0.0000
  Si     Si        0.841920110166761    0.303918993180333    0.726044096108374  0.0000
  Si     Si        0.666955497929915    0.713655684028441    0.734195809695772  0.0000
  Si     Si        0.843256189799481    0.703490804784530    0.732209501002280  0.0000
  Si     Si        0.664401517685745    0.308679024611862    0.729926350095377  0.0000
  Si     Si        0.155846279587579    0.697221657922838    0.279049268183476  0.0000
  Si     Si        0.352286682310473    0.336393129010983    0.294882126906997  0.0000
  Si     Si        0.665226325007878    0.305232855941442    0.038820046654053  0.0000
  Si     Si        0.852104052749898    0.695266655124800    0.044970444124165  0.0000
  Si     Si        0.352728406420433    0.323291094971057    0.984583803848603  0.0000
  Si     Si        0.160677797128584    0.693502739267807    0.973516035181081  0.0000
  Si     Si        0.340720190210028    0.722942899525602    0.979659739898816  0.0000
  Si     Si        0.173784903543661    0.290133422251636    0.973980831339952  0.0000
  Si     Si        0.844011625804093    0.300240377118773    0.035772227381273  0.0000
  O1     O1        0.119837058293669    0.161743018270992    0.392633278548495  0.0000
  O3     O3        0.380576141453688    0.871095481499394    0.380126618605414  0.0000
  O2     O2        0.898055151916267    0.176649058374577    0.646633618061310  0.0000
  O2     O2        0.609368004054363    0.837435891714536    0.653509673380288  0.0000
  O2     O2        0.901195255186586    0.830974342247653    0.657641206837579  0.0000
  O2     O2        0.606553874970895    0.185274016516036    0.646848425137872  0.0000
  O3     O3        0.100000746377112    0.804007813229892    0.372469509885145  0.0000
  O3     O3        0.412784262705685    0.231648727418345    0.382970204545805  0.0000
  O3     O3        0.975208486446361    0.999948413268712    0.477175264020911  0.0000
  O3     O3        0.526035008326390    0.996729473092636    0.483553394788311  0.0000
  O3     O3        0.018459054223885    0.041952289988933    0.214354098664802  0.0000
  O3     O3        0.491421715990194    0.008249945220885    0.216064942163833  0.0000
  O2     O2        0.030095518026175    0.009096100234172    0.712808954000066  0.0000
  O2     O2        0.480938359671642    0.011376706046431    0.725020492163969  0.0000
  O2     O2        0.614068800867295    0.173290780605982    0.123333490065864  0.0000
  O2     O2        0.915449796192026    0.818860281055414    0.116919807739426  0.0000
  O2     O2        0.410487787372086    0.201006827126938    0.902668312659104  0.0000
  O2     O2        0.107768824081159    0.811953348587035    0.878329171563564  0.0000
  O2     O2        0.386663691722115    0.856912724581980    0.887461388449252  0.0000
  O2     O2        0.128216814127811    0.158199733895309    0.875337852196928  0.0000
  O3     O3        0.614641628891112    0.838312473683638    0.143996040342406  0.0000
  O2     O2        0.892198111737977    0.158399254704301    0.115267127044455  0.0000
  O2     O2        0.522335789708671    0.980125131256859    0.969000229874130  0.0000
  O2     O2        0.996226464031364    0.022933452660179    0.959641908283993  0.0000
  O3     O3        0.136583523980237    0.497944557469405    0.301589100543674  0.0000
  O2     O2        0.366934663034391    0.542136580466162    0.315990685773077  0.0000
  O2     O2        0.866405736749660    0.504143870070596    0.697704341804089  0.0000
  O2     O2        0.642077884022746    0.511291977027111    0.710033270094589  0.0000
  O3     O3        0.266606375573433    0.282008722662274    0.336117826103786  0.0000
  O2     O2        0.245060099372540    0.743797899857754    0.315007467852368  0.0000
  O2     O2        0.752315258735075    0.274880582463620    0.682131288713556  0.0000
  O2     O2        0.755360248727599    0.739839061284572    0.684160141976422  0.0000
  O3     O3        0.162162294216553    0.227873771568702    0.122482971501555  0.0000
  O2     O2        0.351956264749388    0.780233686078345    0.132393598999252  0.0000
  O2     O2        0.850144077933328    0.261456279223444    0.880196134271479  0.0000
  O3     O3        0.664138489606431    0.766191679014047    0.886260793314377  0.0000
  O2     O2        0.848872615029477    0.736400400067116    0.888828016395744  0.0000
  O2     O2        0.656491457181085    0.260303628274505    0.883357722198500  0.0000
  O2     O2        0.142147079080503    0.747283660863085    0.124386072818933  0.0000
  O2     O2        0.362418901902475    0.284710713781585    0.139840655619412  0.0000
  O3     O3        0.637958475039221    0.498169040096508    0.069510853015231  0.0000
  O2     O2        0.876754840711541    0.494319140440274    0.068640828193706  0.0000
  O2     O2        0.372723462739580    0.526766018724126    0.956369204826329  0.0000
  O2     O2        0.142332996342894    0.487631887150458    0.952266552623541  0.0000
  O2     O2        0.755220137226502    0.286909679860531    0.081015877443134  0.0000
  O3     O3        0.767413947425703    0.726480812039993    0.101709276392905  0.0000
  O2     O2        0.264722167964273    0.283570345971600    0.938752640517133  0.0000
  O2     O2        0.250301686560896    0.730517987388758    0.940572529585749  0.0000
