data_c00029.vasp
_audit_creation_method             Generated by GULP
_audit_author_name                 Salvador R. G. Balestra
_symmetry_space_group_name_H-M     'P 1             '
_symmetry_Int_Tables_number        1

loop_
_symmetry_equiv_pos_site_id
_symmetry_equiv_pos_as_xyz
_cell_length_a                       17.4195
_cell_length_b                        7.6724
_cell_length_c                       10.0360
_cell_angle_alpha                   90.2894
_cell_angle_beta                    90.2129
_cell_angle_gamma                   90.2965

loop_
_atom_site_label
_atom_site_type_symbol
_atom_site_fract_x
_atom_site_fract_y
_atom_site_fract_z
_atom_site_charge
  Ge     Ge        0.052090000000021    0.000000000000000    0.372269999999958  0.0000
  Ge     Ge        0.451524124167587    0.011895217107894    0.397479703072511  0.0000
  Ge     Ge        0.445406020273686    0.006324179408759    0.915439121239792  0.0000
  Ge     Ge        0.663182211343428    0.699016690917697    0.721345191353365  0.0000
  Si     Si        0.950085731780083    0.997513177581267    0.632187239590633  0.0000
  Si     Si        0.551754093948850    0.996073434135311    0.658729966285063  0.0000
  Si     Si        0.560931983192143    0.001617258275001    0.156508259112589  0.0000
  Si     Si        0.944684662972497    0.004960762165115    0.112462124947267  0.0000
  Si     Si        0.056264055882451    0.998745730001813    0.874896944538075  0.0000
  Si     Si        0.165926424214459    0.295846265312265    0.297903422407328  0.0000
  Si     Si        0.337912554108659    0.715680535547340    0.288484490186627  0.0000
  Si     Si        0.841484986662414    0.295369381168278    0.733630832542057  0.0000
  Si     Si        0.842571541767399    0.696218824898356    0.728192286390222  0.0000
  Si     Si        0.664504281726992    0.291200209280911    0.727283834756258  0.0000
  Si     Si        0.161023466957836    0.699114180617772    0.298416106136138  0.0000
  Si     Si        0.342809344938772    0.309166797570930    0.288033169678488  0.0000
  Si     Si        0.662217515993616    0.303515931054411    0.040536292015853  0.0000
  Si     Si        0.838805762787487    0.699560229028301    0.043323095349447  0.0000
  Si     Si        0.338209686029930    0.310415020439421    0.979854497364839  0.0000
  Si     Si        0.154751254337515    0.696635750518038    0.988253190001817  0.0000
  Si     Si        0.332354671035861    0.711330688468693    0.980281494269093  0.0000
  Si     Si        0.160515110315146    0.296441918403136    0.987544336439153  0.0000
  Si     Si        0.662596568798826    0.703760385658626    0.040722010427439  0.0000
  Si     Si        0.838676646119004    0.304426960965009    0.046384915525875  0.0000
  O3     O3        0.113975107668040    0.175901551676648    0.388978877807136  0.0000
  O3     O3        0.392906875420085    0.832336627743800    0.377664254828938  0.0000
  O2     O2        0.896822684594452    0.165115640980551    0.656298995585996  0.0000
  O3     O3        0.600019094322140    0.821825466537839    0.630774024493827  0.0000
  O2     O2        0.903515612164866    0.818795769378307    0.655139661795471  0.0000
  O2     O2        0.612343519866559    0.156211241747316    0.645034066452482  0.0000
  O3     O3        0.106306572866222    0.813250875473236    0.388964093823308  0.0000
  O3     O3        0.400966093766302    0.201772448820054    0.376018604999640  0.0000
  O3     O3        0.977279120488421    0.003887867352361    0.481649287736705  0.0000
  O3     O3        0.480047527775815    0.013995621274470    0.562443209073238  0.0000
  O3     O3        0.011976701370878    0.006681889918568    0.216203678179958  0.0000
  O3     O3        0.535997558192532    0.003882574074332    0.309162347235351  0.0000
  O2     O2        0.027286332148836    0.002190196336195    0.722487779248595  0.0000
  O3     O3        0.520659403434602    0.993228039914289    0.809052381440626  0.0000
  O2     O2        0.608282113586438    0.177360035443026    0.124404277197830  0.0000
  O2     O2        0.892577909575375    0.830992428297217    0.126037822205040  0.0000
  O3     O3        0.392734018564080    0.194756456577345    0.890344527122215  0.0000
  O2     O2        0.100888163699421    0.818315405212608    0.899413321212141  0.0000
  O3     O3        0.382369346011482    0.833669540486604    0.888743085152979  0.0000
  O2     O2        0.111094076873630    0.165387985634893    0.897296804737423  0.0000
  O2     O2        0.610691621563364    0.828970731155419    0.130052736500464  0.0000
  O2     O2        0.890674384016343    0.174345916645826    0.131876671853051  0.0000
  O3     O3        0.482322290802200    0.997426551639679    0.074374467992814  0.0000
  O2     O2        0.981159522867943    0.009918653833566    0.965448574583585  0.0000
  O2     O2        0.144695940509708    0.496388003537155    0.325236533971311  0.0000
  O2     O2        0.359688176951398    0.513838174340077    0.307901906412495  0.0000
  O2     O2        0.863795440737906    0.494399838709729    0.698508050655630  0.0000
  O3     O3        0.640145350858054    0.484209146167107    0.690578481682732  0.0000
  O2     O2        0.255510489298900    0.265042945747650    0.330518492167833  0.0000
  O2     O2        0.249605990254614    0.745116637864874    0.330777984741894  0.0000
  O2     O2        0.753605168830005    0.259343226090013    0.689870488357665  0.0000
  O3     O3        0.757579607752952    0.734949761793722    0.676681280039686  0.0000
  O2     O2        0.149997641773503    0.248274193785098    0.142481680279333  0.0000
  O2     O2        0.347617081074519    0.768826090260856    0.133813212862577  0.0000
  O2     O2        0.849507704460003    0.263189592081049    0.890731762507002  0.0000
  O3     O3        0.651979097526315    0.751041151157457    0.887684025695090  0.0000
  O2     O2        0.845533369581203    0.732869479999838    0.886121840642216  0.0000
  O2     O2        0.652944815891821    0.259711981258363    0.884922801136116  0.0000
  O2     O2        0.143373872692567    0.743901001325947    0.143436921195299  0.0000
  O2     O2        0.354013407097612    0.255877895093014    0.133310942751138  0.0000
  O2     O2        0.636993661942017    0.503188581731116    0.065905470252308  0.0000
  O2     O2        0.864232792829951    0.502810399303457    0.078575377267431  0.0000
  O2     O2        0.358397804489214    0.512541863981233    0.957598542382608  0.0000
  O2     O2        0.132630916460309    0.494368082112455    0.961793800141868  0.0000
  O2     O2        0.750043390795312    0.276354019175276    0.086192476548163  0.0000
  O2     O2        0.750945556951753    0.729266990419315    0.085754108040059  0.0000
  O2     O2        0.248939021744406    0.276327649251524    0.945306987147660  0.0000
  O2     O2        0.242456662964487    0.730363512664595    0.946160136582683  0.0000
