data_c00022.vasp
_audit_creation_method             Generated by GULP
_audit_author_name                 Salvador R. G. Balestra
_symmetry_space_group_name_H-M     'P 1             '
_symmetry_Int_Tables_number        1

loop_
_symmetry_equiv_pos_site_id
_symmetry_equiv_pos_as_xyz
_cell_length_a                       17.2340
_cell_length_b                        7.6061
_cell_length_c                       10.1644
_cell_angle_alpha                   89.9432
_cell_angle_beta                    90.5674
_cell_angle_gamma                   89.8019

loop_
_atom_site_label
_atom_site_type_symbol
_atom_site_fract_x
_atom_site_fract_y
_atom_site_fract_z
_atom_site_charge
  Ge     Ge        0.052090000000021    0.000000000000000    0.372269999999958  0.0000
  Ge     Ge        0.450402919515587    0.008127023044575    0.376803280281510  0.0000
  Ge     Ge        0.557130875130276    0.997383617397295    0.113230540571649  0.0000
  Ge     Ge        0.858367566636405    0.666922629587774    0.046646939137289  0.0000
  Si     Si        0.948369313412847    0.994810940160720    0.630178663009876  0.0000
  Si     Si        0.552913228807900    0.010567374398898    0.636305632331457  0.0000
  Si     Si        0.953595118304152    0.988602800260885    0.111492235411619  0.0000
  Si     Si        0.443773160422970    0.000872593618224    0.871279184677589  0.0000
  Si     Si        0.061618251112496    0.992857646644104    0.868764897157649  0.0000
  Si     Si        0.170264070750837    0.281584591126045    0.289256315655409  0.0000
  Si     Si        0.332603470706303    0.725802650503505    0.289957585913025  0.0000
  Si     Si        0.833395429693638    0.287715137542524    0.727469877643479  0.0000
  Si     Si        0.669523495573933    0.720365082841319    0.743407572287063  0.0000
  Si     Si        0.846563608297360    0.689945118373033    0.730778270913148  0.0000
  Si     Si        0.656451971575715    0.313466360542249    0.736210845209780  0.0000
  Si     Si        0.152957454045585    0.686257432564974    0.283500303222236  0.0000
  Si     Si        0.349389129483375    0.321647472761809    0.294630120732128  0.0000
  Si     Si        0.657296262129968    0.314730184155520    0.042496788377949  0.0000
  Si     Si        0.350205154716374    0.312346656477642    0.989367797044436  0.0000
  Si     Si        0.155251959178523    0.682257779593258    0.979577435919719  0.0000
  Si     Si        0.335395649172896    0.715301006485809    0.984472497297073  0.0000
  Si     Si        0.170307897941623    0.278911544162437    0.983737344335122  0.0000
  Si     Si        0.677674039333430    0.712110876173977    0.050992603212653  0.0000
  Si     Si        0.834932782079319    0.268412569597154    0.038458437933055  0.0000
  O3     O3        0.124605431213149    0.155926636698937    0.385609400157568  0.0000
  O3     O3        0.376838522611720    0.853396740898221    0.387489250108253  0.0000
  O2     O2        0.887502075920253    0.152890180898600    0.650345484907663  0.0000
  O2     O2        0.612857112729824    0.853332682548111    0.667626704292640  0.0000
  O2     O2        0.905024439956748    0.809293222269040    0.647157016515755  0.0000
  O2     O2        0.594745039370654    0.199117300125855    0.653920110617211  0.0000
  O3     O3        0.094691332918106    0.794304737513509    0.372323082644040  0.0000
  O3     O3        0.407563177771156    0.214091444328311    0.385947180030211  0.0000
  O3     O3        0.979638283510809    0.009955606766221    0.484537587173089  0.0000
  O3     O3        0.525450291025364    0.990667609894357    0.487423919120795  0.0000
  O3     O3        0.008854889938195    0.053700242933655    0.224512876884343  0.0000
  O1     O1        0.488307125814044    0.967532158113661    0.226061910183769  0.0000
  O2     O2        0.024957875551467    0.008494956206532    0.723460704962246  0.0000
  O2     O2        0.473678217145135    0.001158123613858    0.721092287504093  0.0000
  O3     O3        0.597946950380868    0.204656177450105    0.126414750128452  0.0000
  O3     O3        0.927520420899151    0.787728726687504    0.129722885963279  0.0000
  O2     O2        0.407463384827284    0.192255001529869    0.904453820731497  0.0000
  O2     O2        0.100931761828366    0.800082870342806    0.884958070217717  0.0000
  O2     O2        0.379312499807029    0.849219876830038    0.889361307031441  0.0000
  O2     O2        0.126178153438125    0.144011558050715    0.888278324057104  0.0000
  O3     O3        0.631115032025384    0.847041552686598    0.137568059699110  0.0000
  O2     O2        0.873741563847887    0.101574528237315    0.108541239730486  0.0000
  O3     O3        0.517877236890943    0.960022087621168    0.959378970739866  0.0000
  O2     O2        0.993275452698109    0.020232351136592    0.970997605203020  0.0000
  O2     O2        0.140609071188974    0.480534525560069    0.309292675184342  0.0000
  O2     O2        0.361711226961505    0.527720600890912    0.318024996331330  0.0000
  O2     O2        0.861856676856626    0.485237669399983    0.696022842679544  0.0000
  O2     O2        0.640015901804106    0.521313830108565    0.717076886546384  0.0000
  O2     O2        0.261128897416596    0.268052578408742    0.324963647909930  0.0000
  O2     O2        0.240982817369859    0.741579341430844    0.316466516924591  0.0000
  O2     O2        0.743010765018373    0.267189832044678    0.685405369651623  0.0000
  O2     O2        0.757636102209522    0.739590564104319    0.692045956387873  0.0000
  O2     O2        0.157378749223122    0.227297166931442    0.135995492499789  0.0000
  O2     O2        0.348653769527161    0.771203080042912    0.136227290733136  0.0000
  O2     O2        0.839507451384320    0.249991344779431    0.881482336184264  0.0000
  O2     O2        0.671729135467682    0.767471433424673    0.897197066921493  0.0000
  O3     O3        0.863958097897873    0.723601741224181    0.882669524480840  0.0000
  O2     O2        0.646787604277077    0.261949627181794    0.888819863629130  0.0000
  O2     O2        0.135079717336616    0.732284215894191    0.129915372047823  0.0000
  O2     O2        0.367547826802076    0.271224681538833    0.142510994660257  0.0000
  O2     O2        0.639651668607017    0.519177140027979    0.065377417628546  0.0000
  O3     O3        0.877704447910939    0.447954059889683    0.076454616297930  0.0000
  O2     O2        0.367070692120974    0.517506472123671    0.960035783906390  0.0000
  O2     O2        0.138538343063952    0.476067254460715    0.954900760926940  0.0000
  O2     O2        0.746021347167919    0.273714972768763    0.084618791433883  0.0000
  O3     O3        0.765747547845591    0.708843259078862    0.099191241686154  0.0000
  O2     O2        0.261453097530778    0.268241898886598    0.951969383549017  0.0000
  O2     O2        0.244487822111558    0.724018299301692    0.949080398089398  0.0000
