data_c00079.vasp
_audit_creation_method             Generated by GULP
_audit_author_name                 Salvador R. G. Balestra
_symmetry_space_group_name_H-M     'P 1             '
_symmetry_Int_Tables_number        1

loop_
_symmetry_equiv_pos_site_id
_symmetry_equiv_pos_as_xyz
_cell_length_a                       17.1913
_cell_length_b                        7.5959
_cell_length_c                       10.3684
_cell_angle_alpha                   89.9354
_cell_angle_beta                    90.9815
_cell_angle_gamma                   90.0685

loop_
_atom_site_label
_atom_site_type_symbol
_atom_site_fract_x
_atom_site_fract_y
_atom_site_fract_z
_atom_site_charge
  Ge     Ge        0.052090000000021    0.000000000000000    0.372269999999958  0.0000
  Ge     Ge        0.947243407872033    0.994141268120645    0.636641606436620  0.0000
  Ge     Ge        0.559280850346944    0.018599914674621    0.148716015446944  0.0000
  Ge     Ge        0.350932263696054    0.338106385453506    0.987289656799752  0.0000
  Si     Si        0.453024459169921    0.014177011153035    0.395845550556218  0.0000
  Si     Si        0.546027054079315    0.008025398100113    0.659545522509982  0.0000
  Si     Si        0.946279272050510    0.008262982372718    0.113107252982708  0.0000
  Si     Si        0.444204038696926    0.018349922240253    0.904991135664291  0.0000
  Si     Si        0.056994795095892    0.007631257526221    0.883760531886356  0.0000
  Si     Si        0.173695597556620    0.285037328905376    0.294038406673298  0.0000
  Si     Si        0.336700806362997    0.727123875948315    0.298132487749305  0.0000
  Si     Si        0.826104091404641    0.280988082833930    0.739570243652133  0.0000
  Si     Si        0.663350321254149    0.724504071771689    0.739186346635221  0.0000
  Si     Si        0.842786325872414    0.686274433054846    0.730910488315649  0.0000
  Si     Si        0.648073842935307    0.318236642990540    0.747285913932210  0.0000
  Si     Si        0.157892259493760    0.691069642882289    0.301466285875649  0.0000
  Si     Si        0.353050637276202    0.321684480856938    0.293619526624637  0.0000
  Si     Si        0.652816119017834    0.336359734042232    0.047191693353367  0.0000
  Si     Si        0.851804136776848    0.691264257779969    0.030025030852646  0.0000
  Si     Si        0.151110311203980    0.697751899205330    0.002295359234425  0.0000
  Si     Si        0.330799890132593    0.741746907654952    0.996027564795853  0.0000
  Si     Si        0.167530301557200    0.296642812231408    0.993129211213524  0.0000
  Si     Si        0.672145729931069    0.736303020562415    0.037944500377878  0.0000
  Si     Si        0.831693693149444    0.293433068399509    0.040172363347492  0.0000
  O3     O3        0.125159164077924    0.157605699750429    0.382251832178859  0.0000
  O2     O2        0.388441063687295    0.860977529575324    0.381736542809384  0.0000
  O3     O3        0.876175445671203    0.150881168013109    0.656852829315389  0.0000
  O2     O2        0.611631246561657    0.855886683611553    0.651492699860506  0.0000
  O3     O3        0.901419547824434    0.791520164022243    0.643434884166963  0.0000
  O2     O2        0.586731565675009    0.199641360577839    0.667634993932109  0.0000
  O3     O3        0.098611971138758    0.797975560719521    0.386893769766114  0.0000
  O2     O2        0.412977110925921    0.204974833367616    0.377949237181525  0.0000
  O1     O1        0.983068323603434    0.020929028470333    0.485197767108916  0.0000
  O2     O2        0.489307969099264    0.002303804283026    0.537695242574133  0.0000
  O3     O3        0.008509206213564    0.031600230972805    0.223717783817082  0.0000
  O3     O3        0.522768878156153    0.987557435622796    0.298833330540536  0.0000
  O3     O3        0.027597342439844    0.010228751261673    0.737687506318818  0.0000
  O2     O2        0.493465924325906    0.968639446426252    0.781979260671202  0.0000
  O3     O3        0.594461614249374    0.231342172353589    0.135099713287649  0.0000
  O2     O2        0.909460082640633    0.811494162243245    0.116189836917500  0.0000
  O3     O3        0.416382726243512    0.219107523085458    0.898823714144777  0.0000
  O2     O2        0.093863999444461    0.816634346855634    0.916005660086568  0.0000
  O2     O2        0.365939672093357    0.898671764250601    0.911834931371517  0.0000
  O2     O2        0.120082789990848    0.161989656595170    0.903394184866590  0.0000
  O3     O3        0.636584847135008    0.876403218737943    0.131469869335261  0.0000
  O2     O2        0.877885453368294    0.153096185319484    0.127826686501198  0.0000
  O3     O3        0.491163870097924    0.968034068431877    0.033597951260052  0.0000
  O2     O2        0.984154043131198    0.043966776404185    0.974410436323814  0.0000
  O2     O2        0.144667996009542    0.483716151189106    0.319225110202357  0.0000
  O2     O2        0.367608021506673    0.528590114323313    0.320939929012863  0.0000
  O2     O2        0.854157480728690    0.478960161848149    0.708794261664271  0.0000
  O2     O2        0.633526216705252    0.524417643168650    0.718302600897490  0.0000
  O2     O2        0.265085295768948    0.270903430792185    0.329723855880919  0.0000
  O2     O2        0.246940222001651    0.741157879467688    0.339467714578000  0.0000
  O2     O2        0.734507194103631    0.264275309185247    0.704599533602095  0.0000
  O2     O2        0.753300860710063    0.739566485343552    0.699041278379756  0.0000
  O2     O2        0.163366340844913    0.237010459521516    0.142533146068369  0.0000
  O2     O2        0.343402630963574    0.778132132227945    0.148360092691755  0.0000
  O2     O2        0.837230265436228    0.238357419139386    0.890885493740781  0.0000
  O2     O2        0.655462879250728    0.783647147076162    0.887821953273471  0.0000
  O2     O2        0.864156213738342    0.735081891228289    0.879433117028100  0.0000
  O2     O2        0.636420224147546    0.278424580206737    0.898669458372396  0.0000
  O2     O2        0.140568272565118    0.746586900397399    0.152350356847126  0.0000
  O3     O3        0.369293720167151    0.278799104713960    0.145830259708843  0.0000
  O2     O2        0.636533439143051    0.543068731474887    0.065046802270956  0.0000
  O2     O2        0.869601476025956    0.486818705907776    0.060609379859946  0.0000
  O3     O3        0.370073427264370    0.557487098702516    0.961901687984008  0.0000
  O2     O2        0.131229042727637    0.492730050472353    0.977405499788433  0.0000
  O2     O2        0.742437929005867    0.293272055817291    0.083952395478539  0.0000
  O2     O2        0.764001930400896    0.734072574081198    0.066750196821222  0.0000
  O3     O3        0.255413969355527    0.295902547310505    0.947103446625889  0.0000
  O2     O2        0.239413059087185    0.732894040757228    0.961727206321306  0.0000
