data_c00007.vasp
_audit_creation_method             Generated by GULP
_audit_author_name                 Salvador R. G. Balestra
_symmetry_space_group_name_H-M     'P 1             '
_symmetry_Int_Tables_number        1

loop_
_symmetry_equiv_pos_site_id
_symmetry_equiv_pos_as_xyz
_cell_length_a                       17.3619
_cell_length_b                        7.6563
_cell_length_c                       10.2336
_cell_angle_alpha                   89.5484
_cell_angle_beta                    90.0330
_cell_angle_gamma                   89.4398

loop_
_atom_site_label
_atom_site_type_symbol
_atom_site_fract_x
_atom_site_fract_y
_atom_site_fract_z
_atom_site_charge
  Ge     Ge        0.052090000000021    0.000000000000000    0.372269999999958  0.0000
  Ge     Ge        0.457089625478122    0.978476360827314    0.357387444528553  0.0000
  Ge     Ge        0.952628857187745    0.996313620594791    0.643856277754483  0.0000
  Ge     Ge        0.350847702384303    0.669693205310439    0.278397858371987  0.0000
  Si     Si        0.553662521044977    0.002329416537702    0.619816917388323  0.0000
  Si     Si        0.559535721526849    0.001232597178826    0.095462060035500  0.0000
  Si     Si        0.945006351829424    0.993974351991895    0.128595891360176  0.0000
  Si     Si        0.446091195061904    0.987602699079428    0.858965155484618  0.0000
  Si     Si        0.060286214936423    0.002247874826723    0.899604233231214  0.0000
  Si     Si        0.158413900330189    0.303183195948047    0.269193767105797  0.0000
  Si     Si        0.839272311422119    0.297651110504238    0.710947693785581  0.0000
  Si     Si        0.659996865589588    0.698495005825106    0.716473663437189  0.0000
  Si     Si        0.837268908925466    0.702657910683304    0.710064536975978  0.0000
  Si     Si        0.662410943631545    0.298465331234139    0.717798898022664  0.0000
  Si     Si        0.171149664521185    0.705610287660781    0.273658104233834  0.0000
  Si     Si        0.335796361867023    0.260595697788637    0.272620329070012  0.0000
  Si     Si        0.667129687462563    0.299487577829549    0.024611354487995  0.0000
  Si     Si        0.841677669977081    0.700589750794269    0.013833329734069  0.0000
  Si     Si        0.338585075631277    0.279321418441878    0.967343324673896  0.0000
  Si     Si        0.172722412161253    0.706462455860446    0.966756541126994  0.0000
  Si     Si        0.349990664341157    0.681804742854879    0.967340722884602  0.0000
  Si     Si        0.160911769193857    0.309133859196284    0.964884791800995  0.0000
  Si     Si        0.663803099340667    0.695441165908783    0.022972778462295  0.0000
  Si     Si        0.844288472021205    0.298233599241865    0.015348472138522  0.0000
  O3     O3        0.097876113305599    0.196635420992963    0.351336668379633  0.0000
  O1     O1        0.417667713042617    0.776245223894296    0.369127802338054  0.0000
  O3     O3        0.895470389411880    0.182160084222923    0.625624720529835  0.0000
  O2     O2        0.603290949394866    0.825013854567997    0.636718889211897  0.0000
  O3     O3        0.891647126340010    0.820069778796206    0.623520521762789  0.0000
  O2     O2        0.605500260908902    0.171482304540170    0.643495478295915  0.0000
  O3     O3        0.115145507994246    0.828727749477090    0.352925074658264  0.0000
  O3     O3        0.379474307562725    0.121947640741952    0.361302682818438  0.0000
  O1     O1        0.023677192191667    0.992852516368719    0.531872715395026  0.0000
  O3     O3        0.525746601809078    0.015586133710634    0.472661690449693  0.0000
  O3     O3        0.969833192821948    0.986918484928324    0.278024614200289  0.0000
  O3     O3        0.498211549716042    0.011896136045958    0.206718889237874  0.0000
  O3     O3        0.993586409923842    0.987040653330395    0.796764764072668  0.0000
  O2     O2        0.478128709507877    0.998083123745733    0.711699186196763  0.0000
  O2     O2        0.616110324863252    0.166690958655282    0.107545092901674  0.0000
  O2     O2        0.893260838075327    0.825248528730371    0.100878850225211  0.0000
  O2     O2        0.385890212534577    0.146961930301512    0.876894946188750  0.0000
  O2     O2        0.122401089287302    0.844661630957012    0.883895314415761  0.0000
  O2     O2        0.404932112418685    0.800817758854479    0.877390761926589  0.0000
  O2     O2        0.104802257488466    0.186662928654434    0.881130437797820  0.0000
  O2     O2        0.610731438114470    0.823656084571710    0.107911389604640  0.0000
  O2     O2        0.898734294596604    0.174005702843152    0.101433228933742  0.0000
  O2     O2        0.517748718357234    0.007158405030860    0.955461281461692  0.0000
  O2     O2        0.023144328441165    0.988542633484416    0.044065074296714  0.0000
  O2     O2        0.144394419709254    0.506908572533686    0.296216431506988  0.0000
  O3     O3        0.367680560316795    0.451207015929617    0.301343165523727  0.0000
  O2     O2        0.857300762863277    0.500320795268642    0.685811217162887  0.0000
  O2     O2        0.639804187771634    0.498541367073562    0.682468032204669  0.0000
  O2     O2        0.245517680160919    0.251368281890394    0.308702476260578  0.0000
  O3     O3        0.258008960122076    0.726633891553009    0.322225844463006  0.0000
  O2     O2        0.750278869507690    0.259714385073472    0.675030662611150  0.0000
  O2     O2        0.747671646571093    0.738758293885814    0.675971873708852  0.0000
  O2     O2        0.147374859967602    0.261804782373643    0.116155883179978  0.0000
  O3     O3        0.363619713657072    0.731443132930280    0.116250259018896  0.0000
  O2     O2        0.853924543690372    0.248885448335981    0.863567843353315  0.0000
  O2     O2        0.648921775219431    0.732149010457835    0.870100267245657  0.0000
  O2     O2        0.851897454688617    0.750913180155664    0.862016731914571  0.0000
  O2     O2        0.654561535306999    0.265497237719774    0.871819369820966  0.0000
  O2     O2        0.167301424384973    0.751223145444626    0.119447953145812  0.0000
  O2     O2        0.347560982783170    0.221550735029033    0.118089907011032  0.0000
  O2     O2        0.641562556733732    0.496973485523458    0.059845747478780  0.0000
  O2     O2        0.867636676990749    0.499541038638434    0.038360839280197  0.0000
  O2     O2        0.369826502238349    0.476229825016528    0.946986871339059  0.0000
  O2     O2        0.140762899354224    0.512521976951995    0.937359064467850  0.0000
  O2     O2        0.756503903632820    0.269698862201288    0.060543644638489  0.0000
  O2     O2        0.753066289190879    0.727419623991268    0.056156688981411  0.0000
  O2     O2        0.249262220897112    0.271352646693896    0.925395316728777  0.0000
  O2     O2        0.261675547623137    0.717996501423663    0.923969389339794  0.0000
