data_c00012.vasp
_audit_creation_method             Generated by GULP
_audit_author_name                 Salvador R. G. Balestra
_symmetry_space_group_name_H-M     'P 1             '
_symmetry_Int_Tables_number        1

loop_
_symmetry_equiv_pos_site_id
_symmetry_equiv_pos_as_xyz
_cell_length_a                       17.3783
_cell_length_b                        7.6586
_cell_length_c                       10.1905
_cell_angle_alpha                   89.5402
_cell_angle_beta                    90.3277
_cell_angle_gamma                   90.4116

loop_
_atom_site_label
_atom_site_type_symbol
_atom_site_fract_x
_atom_site_fract_y
_atom_site_fract_z
_atom_site_charge
  Ge     Ge        0.052090000000021    0.000000000000000    0.372269999999958  0.0000
  Ge     Ge        0.452702211584125    0.015949799869460    0.373886491061417  0.0000
  Ge     Ge        0.950329013615424    0.013523511928710    0.640451978916987  0.0000
  Ge     Ge        0.346675045584859    0.338669798867819    0.958682336421727  0.0000
  Si     Si        0.551195554166938    0.007632115665073    0.640585052772557  0.0000
  Si     Si        0.562101743906524    0.013497352829269    0.128510799997813  0.0000
  Si     Si        0.942004947963248    0.016175222098281    0.130266057113765  0.0000
  Si     Si        0.448775781500523    0.032045459184121    0.890457074659547  0.0000
  Si     Si        0.055532122335082    0.020520272029090    0.899770918258818  0.0000
  Si     Si        0.170385037263030    0.296434164411725    0.265541141693572  0.0000
  Si     Si        0.335763960334162    0.725081390967929    0.276680151140343  0.0000
  Si     Si        0.836068937318864    0.306884856826868    0.711063342450819  0.0000
  Si     Si        0.661124303285991    0.712205435179575    0.709242410393079  0.0000
  Si     Si        0.838425965378164    0.710563302903763    0.705202475078884  0.0000
  Si     Si        0.657758181602297    0.311691714700520    0.716023422097998  0.0000
  Si     Si        0.158966243867409    0.698717184202804    0.276834278979192  0.0000
  Si     Si        0.345461036999900    0.317631059677181    0.269381526711000  0.0000
  Si     Si        0.661749910829868    0.318062902015181    0.022122896282840  0.0000
  Si     Si        0.842118393671659    0.714648835864664    0.010928727277340  0.0000
  Si     Si        0.158299838160933    0.714253015271336    0.971680361034003  0.0000
  Si     Si        0.336678247363527    0.743754204818022    0.972836566261635  0.0000
  Si     Si        0.167347857496674    0.318132968695809    0.956937563551837  0.0000
  Si     Si        0.664599313328802    0.716124007491169    0.016735365597595  0.0000
  Si     Si        0.840172713497285    0.312937974923593    0.015570732507196  0.0000
  O3     O3        0.115520637085940    0.167766746479135    0.342240569850069  0.0000
  O3     O3        0.389180574055810    0.842415052445545    0.366242253241895  0.0000
  O3     O3        0.887939807254999    0.188282113821131    0.622355472766307  0.0000
  O2     O2        0.606933506364119    0.840292956491348    0.625283719107574  0.0000
  O3     O3        0.894498503146276    0.826721960486449    0.618974648676694  0.0000
  O2     O2        0.602902113142064    0.184289565215518    0.633329441811079  0.0000
  O3     O3        0.099268317654430    0.803037062285246    0.362097154605846  0.0000
  O3     O3        0.405406334995813    0.211076586439694    0.355640785291242  0.0000
  O1     O1        0.022931589951992    0.020934093649557    0.531341149572643  0.0000
  O3     O3        0.486684862845439    0.011548096297064    0.532286592867029  0.0000
  O3     O3        0.968503060119386    0.008692426328284    0.279757049267458  0.0000
  O3     O3        0.531865140809288    0.998117403945067    0.274574045061250  0.0000
  O3     O3        0.988256281059974    0.019847374685528    0.796497315532055  0.0000
  O2     O2        0.510210679468388    0.990369924984440    0.780800288260601  0.0000
  O2     O2        0.611426824953895    0.191687825713388    0.113236009877241  0.0000
  O2     O2        0.895752299182903    0.839104933908845    0.097074487402160  0.0000
  O3     O3        0.411064256317270    0.219825246117177    0.868398944611387  0.0000
  O2     O2        0.105379468012719    0.843669054559657    0.886619887284061  0.0000
  O2     O2        0.379229715831289    0.890636875139383    0.886895344116923  0.0000
  O2     O2        0.111399966860236    0.188003151858693    0.877832619316171  0.0000
  O2     O2        0.614541335022681    0.845897481947885    0.101531244405076  0.0000
  O2     O2        0.890040366138357    0.187256010102383    0.107829724830709  0.0000
  O2     O2        0.488711211082397    0.018725475238790    0.032903030484317  0.0000
  O2     O2        0.019638404967396    0.030551503199615    0.045389526806794  0.0000
  O2     O2        0.143313447275915    0.493102969421790    0.295190420343212  0.0000
  O2     O2        0.360858716093715    0.523795117540159    0.287092787797965  0.0000
  O2     O2        0.857118846405498    0.508225970171710    0.682653529524466  0.0000
  O2     O2        0.637430787550616    0.511891716082959    0.680114216091229  0.0000
  O2     O2        0.258279744409167    0.270843218206017    0.314071322541305  0.0000
  O2     O2        0.246701846353512    0.744432700375551    0.318600323474069  0.0000
  O2     O2        0.746000321347052    0.273076366838337    0.680714974816174  0.0000
  O2     O2        0.749359750806752    0.746083268143262    0.668298921732447  0.0000
  O2     O2        0.168474012525649    0.262903676957296    0.109877888139232  0.0000
  O2     O2        0.345851789215258    0.789683072593007    0.126474018262170  0.0000
  O2     O2        0.852548603801987    0.261397747255181    0.864363663187570  0.0000
  O2     O2        0.651453492314548    0.752751882883772    0.862993885115451  0.0000
  O2     O2        0.852728608375737    0.760959305076051    0.857823543642989  0.0000
  O2     O2        0.643963399003340    0.275701801229622    0.870367787932513  0.0000
  O2     O2        0.146372274219267    0.754700023679176    0.124924390213039  0.0000
  O3     O3        0.355701866288172    0.266899316830447    0.118501402365166  0.0000
  O2     O2        0.639248645008931    0.517858237473683    0.052166356077553  0.0000
  O2     O2        0.865721266830707    0.513743399672720    0.038825315768416  0.0000
  O3     O3        0.371446930423829    0.555970284752087    0.943671659395739  0.0000
  O2     O2        0.134809040277704    0.514917352498920    0.939416874319818  0.0000
  O2     O2        0.751217447236830    0.287816766112542    0.053833104021780  0.0000
  O2     O2        0.754048317142069    0.744437151987146    0.052632534333793  0.0000
  O3     O3        0.253220504260701    0.308841450907676    0.903457171119723  0.0000
  O2     O2        0.246891242838050    0.744049683911135    0.932701924857660  0.0000
