data_c00002.vasp
_audit_creation_method             Generated by GULP
_audit_author_name                 Salvador R. G. Balestra
_symmetry_space_group_name_H-M     'P 1             '
_symmetry_Int_Tables_number        1

loop_
_symmetry_equiv_pos_site_id
_symmetry_equiv_pos_as_xyz
_cell_length_a                       17.4621
_cell_length_b                        7.6714
_cell_length_c                       10.0715
_cell_angle_alpha                   89.9938
_cell_angle_beta                    90.5096
_cell_angle_gamma                   89.9847

loop_
_atom_site_label
_atom_site_type_symbol
_atom_site_fract_x
_atom_site_fract_y
_atom_site_fract_z
_atom_site_charge
  Ge     Ge        0.052090000000021    0.000000000000000    0.372269999999958  0.0000
  Ge     Ge        0.449329296029333    0.998809228509762    0.351354574922005  0.0000
  Ge     Ge        0.946690109248624    0.999335954787511    0.637910259218605  0.0000
  Ge     Ge        0.559221346926186    0.999326288701629    0.089591961177881  0.0000
  Si     Si        0.549705249411589    0.999144877596649    0.612480503706317  0.0000
  Si     Si        0.946860370558848    0.999349334645364    0.122954642309020  0.0000
  Si     Si        0.443413807356134    0.998844141883892    0.849465220618100  0.0000
  Si     Si        0.058576044434204    0.999602199928497    0.891203531674616  0.0000
  Si     Si        0.162306212208169    0.299230258993319    0.267935930902236  0.0000
  Si     Si        0.339428395427003    0.700399356427399    0.273944825261678  0.0000
  Si     Si        0.833292555963597    0.298031500770276    0.699252578687171  0.0000
  Si     Si        0.656958311131812    0.700777387677287    0.717129449560633  0.0000
  Si     Si        0.833004993516734    0.701195775618745    0.699253428499023  0.0000
  Si     Si        0.657248817823384    0.297084191058058    0.717165056234747  0.0000
  Si     Si        0.163195753414820    0.701639361459906    0.267844893930900  0.0000
  Si     Si        0.338538643286359    0.295937685187038    0.274033911746004  0.0000
  Si     Si        0.668925591617147    0.299807358145622    0.026713937640695  0.0000
  Si     Si        0.844583645716287    0.699946750569477    0.008371191771459  0.0000
  Si     Si        0.341352662591099    0.297241224870292    0.964647967592382  0.0000
  Si     Si        0.164737830632453    0.699235467229692    0.957744555728038  0.0000
  Si     Si        0.342085015380076    0.699458324342595    0.964579609899397  0.0000
  Si     Si        0.164014756204170    0.301036396702050    0.957844080407235  0.0000
  Si     Si        0.668451110534026    0.697882951740642    0.026683832606622  0.0000
  Si     Si        0.845024822498165    0.299454705158499    0.008374474777096  0.0000
  O3     O3        0.105987846358403    0.185594197626889    0.353109587189565  0.0000
  O3     O3        0.392998953872540    0.814249774705598    0.366910785800132  0.0000
  O3     O3        0.887638145625400    0.179045794347813    0.613201555023437  0.0000
  O2     O2        0.599117870025351    0.824798935763404    0.637799987905267  0.0000
  O3     O3        0.887207750913889    0.820433081107695    0.613179151821751  0.0000
  O2     O2        0.599510914873700    0.172782617596282    0.637970524332619  0.0000
  O3     O3        0.107598322014820    0.816883283747770    0.353179849010415  0.0000
  O3     O3        0.391459678809463    0.180901381731435    0.367306414018184  0.0000
  O1     O1        0.021260611149492    0.999045647074228    0.532271513166348  0.0000
  O3     O3        0.525140758430369    0.999614753482301    0.460071522025805  0.0000
  O3     O3        0.969960358572978    0.998776935581216    0.275755082934132  0.0000
  O1     O1        0.485675359245258    0.000659914460272    0.195157800216884  0.0000
  O3     O3        0.987369392502540    0.998717816188049    0.794495218636566  0.0000
  O2     O2        0.470580987629941    0.999286862060996    0.695926715554264  0.0000
  O3     O3        0.618060822018962    0.178244225118407    0.115941826733247  0.0000
  O2     O2        0.898563875227292    0.825258641746431    0.093283217381691  0.0000
  O2     O2        0.393195805667315    0.171624268379932    0.876190806737125  0.0000
  O2     O2        0.112366195033097    0.829126650470452    0.870658303800692  0.0000
  O2     O2        0.394494353867109    0.824156217358395    0.876355025556586  0.0000
  O2     O2        0.111246134965618    0.171889982005547    0.870873322162704  0.0000
  O3     O3        0.617153937714988    0.818763071810244    0.115820685639132  0.0000
  O2     O2        0.899382289119496    0.174716547197316    0.093200542138231  0.0000
  O3     O3        0.521255608182503    0.000260684169253    0.931493484539555  0.0000
  O2     O2        0.025513007856176    0.998542927920509    0.040759543957746  0.0000
  O2     O2        0.145040006330685    0.500641985106172    0.298704715809230  0.0000
  O2     O2        0.356754490396846    0.497994985804429    0.300331765013001  0.0000
  O2     O2        0.852062313531209    0.499665501405664    0.671049353760572  0.0000
  O2     O2        0.634833440542138    0.498868613393577    0.690555439960029  0.0000
  O2     O2        0.250101695146288    0.254638878063071    0.305325184022311  0.0000
  O2     O2        0.251188909680415    0.743977477172571    0.305203986651244  0.0000
  O2     O2        0.743711491863662    0.262251981763147    0.667993153842530  0.0000
  O2     O2        0.743367993490947    0.736256321546855    0.668015124204992  0.0000
  O2     O2        0.149453396732701    0.260903152171539    0.111993846040772  0.0000
  O2     O2        0.355957160151833    0.745437101019455    0.119069297502834  0.0000
  O2     O2        0.851029257872038    0.251238807441378    0.853468007820627  0.0000
  O2     O2        0.651438152202929    0.744951261847153    0.872628854004975  0.0000
  O2     O2        0.850588631825103    0.748158893159432    0.853467584392585  0.0000
  O2     O2        0.651949947933304    0.252809657178819    0.872661460813724  0.0000
  O2     O2        0.150419879721896    0.739920170004595    0.111883638574303  0.0000
  O2     O2        0.354950408987677    0.250802207105378    0.119142981794491  0.0000
  O2     O2        0.645932410437186    0.498737227764134    0.055505473092641  0.0000
  O2     O2        0.870475777991119    0.499821259923090    0.031929516543910  0.0000
  O2     O2        0.364882412973608    0.498124394305004    0.937622602107824  0.0000
  O2     O2        0.141656681093164    0.500337118327375    0.922896209790122  0.0000
  O2     O2        0.758639200666649    0.271579964691465    0.057728390869076  0.0000
  O2     O2        0.758117810856458    0.727039673295803    0.057641042666652  0.0000
  O2     O2        0.252851874448845    0.268261832351036    0.924197398389662  0.0000
  O2     O2        0.253688115981312    0.730264408332515    0.924068325956163  0.0000
