data_c00046.vasp
_audit_creation_method             Generated by GULP
_audit_author_name                 Salvador R. G. Balestra
_symmetry_space_group_name_H-M     'P 1             '
_symmetry_Int_Tables_number        1

loop_
_symmetry_equiv_pos_site_id
_symmetry_equiv_pos_as_xyz
_cell_length_a                       17.2767
_cell_length_b                        7.6521
_cell_length_c                       10.2021
_cell_angle_alpha                   90.1537
_cell_angle_beta                    90.3996
_cell_angle_gamma                   88.9039

loop_
_atom_site_label
_atom_site_type_symbol
_atom_site_fract_x
_atom_site_fract_y
_atom_site_fract_z
_atom_site_charge
  Ge     Ge        0.052090000000021    0.000000000000000    0.372269999999958  0.0000
  Ge     Ge        0.457397900260607    0.967525269053799    0.368272020465451  0.0000
  Ge     Ge        0.155203951407525    0.310510508260726    0.274754794192847  0.0000
  Ge     Ge        0.155139309914423    0.310045286571821    0.954055679617374  0.0000
  Si     Si        0.951284450075370    0.962956149250956    0.633152564469946  0.0000
  Si     Si        0.553085262211646    0.980427418716637    0.637278548155034  0.0000
  Si     Si        0.565659170671925    0.985473149464799    0.124719060402268  0.0000
  Si     Si        0.947552982731411    0.972186345566033    0.119029559838892  0.0000
  Si     Si        0.449872235618077    0.976323168093251    0.890847719452118  0.0000
  Si     Si        0.057851047163998    0.997688042610901    0.880779232302342  0.0000
  Si     Si        0.353627569249722    0.663459072668682    0.269119497422392  0.0000
  Si     Si        0.843365329737880    0.269578157852008    0.706042347577135  0.0000
  Si     Si        0.662623748934062    0.674933077605540    0.704631499975682  0.0000
  Si     Si        0.840732299620026    0.670874173433756    0.701891450170751  0.0000
  Si     Si        0.664250702881544    0.273474511639129    0.708078882304211  0.0000
  Si     Si        0.175554116392814    0.717695685128862    0.270051408131975  0.0000
  Si     Si        0.334539226547680    0.263554366987527    0.265696407393807  0.0000
  Si     Si        0.666727545218377    0.280494113019443    0.014075780454093  0.0000
  Si     Si        0.843846112846838    0.675362152333414    0.008884592906559  0.0000
  Si     Si        0.334792056848988    0.273080717806816    0.956359850683411  0.0000
  Si     Si        0.173182246307729    0.713268397221573    0.962058342980768  0.0000
  Si     Si        0.351790727146700    0.668390712000348    0.964916147139586  0.0000
  Si     Si        0.665785064993434    0.678462712307091    0.011741553077872  0.0000
  Si     Si        0.845649240491091    0.277304000732092    0.012196937057405  0.0000
  O1     O1        0.086354044253949    0.206557436448563    0.363537877626960  0.0000
  O3     O3        0.414867172443063    0.766319189917997    0.354147177177081  0.0000
  O2     O2        0.898236119962761    0.140007245385085    0.622786116290356  0.0000
  O2     O2        0.605450399731157    0.802868875892661    0.623663475025583  0.0000
  O2     O2        0.895095510406606    0.796709339496585    0.619281607179329  0.0000
  O2     O2        0.609874427630791    0.145820577677082    0.625726870004411  0.0000
  O3     O3        0.132884690400967    0.867143428846323    0.350625523401746  0.0000
  O3     O3        0.389190445803054    0.127788543989701    0.339476382918436  0.0000
  O3     O3        0.015725714752636    0.958802936343290    0.525093397005469  0.0000
  O3     O3        0.488363326392887    0.988545816900784    0.527984829121646  0.0000
  O3     O3        0.976765873083921    0.959121649470306    0.265757938581394  0.0000
  O3     O3        0.538458370594409    0.985297617568745    0.272493031583896  0.0000
  O2     O2        0.994832514991343    0.951740893029903    0.772451034716315  0.0000
  O2     O2        0.512071794900659    0.986741664899383    0.777770945515012  0.0000
  O2     O2        0.617758569191318    0.154664262730320    0.103802412632558  0.0000
  O2     O2        0.896235515695225    0.803184050281840    0.092037995513403  0.0000
  O2     O2        0.387467552053397    0.134275581134693    0.877588474499259  0.0000
  O2     O2        0.131439655857495    0.863423183917203    0.875876228476510  0.0000
  O2     O2        0.407392788182995    0.790082224051454    0.880256657781309  0.0000
  O3     O3        0.090451795950253    0.189769323213112    0.861927225581266  0.0000
  O2     O2        0.613683537307907    0.807633653668159    0.097266640436495  0.0000
  O2     O2        0.897714570141142    0.150945720158046    0.101374867947031  0.0000
  O2     O2        0.490226968334503    0.996472389889257    0.032224180390883  0.0000
  O2     O2        0.020777976027631    0.975727993430305    0.024008615328980  0.0000
  O3     O3        0.138865902101021    0.531596035115649    0.297498788556996  0.0000
  O2     O2        0.368389572094548    0.457094921791322    0.287194389263163  0.0000
  O2     O2        0.863941195269071    0.469233645064000    0.671910429949087  0.0000
  O2     O2        0.641242923829910    0.474173883590887    0.674976299401004  0.0000
  O3     O3        0.248879718367363    0.255529925677675    0.322921164505920  0.0000
  O2     O2        0.266061857325527    0.712657960021494    0.311382626797571  0.0000
  O2     O2        0.753737785920918    0.236127254246613    0.670927282873495  0.0000
  O2     O2        0.751192782025227    0.706392146368907    0.662439573111468  0.0000
  O1     O1        0.143532883364824    0.252362609931843    0.113651692402840  0.0000
  O2     O2        0.364501772489324    0.717106047118091    0.117106967902679  0.0000
  O2     O2        0.858629819066526    0.231597957275504    0.859594690466597  0.0000
  O2     O2        0.653139644929338    0.717762410837808    0.858365766429790  0.0000
  O2     O2        0.852334589951059    0.713026636097841    0.855122047544073  0.0000
  O2     O2        0.652788103688845    0.236074265928468    0.861844310203138  0.0000
  O2     O2        0.167315814859247    0.759231963550297    0.115565298633612  0.0000
  O2     O2        0.329188219099304    0.224095988727458    0.109994462075852  0.0000
  O2     O2        0.641265119803763    0.480633839817018    0.043320568510667  0.0000
  O2     O2        0.870567019239915    0.476222593500308    0.040069609581587  0.0000
  O2     O2        0.372328562203338    0.464712734756900    0.939075658799513  0.0000
  O3     O3        0.134025789017938    0.529785272770542    0.933570792601552  0.0000
  O2     O2        0.756685961043245    0.251847190662225    0.049807553852216  0.0000
  O2     O2        0.755044029455540    0.705610789270354    0.050639329774468  0.0000
  O3     O3        0.248807251630973    0.272532230010202    0.899817909551926  0.0000
  O2     O2        0.263203931442546    0.704495129120775    0.921587951193776  0.0000
