data_c00093.vasp
_audit_creation_method             Generated by GULP
_audit_author_name                 Salvador R. G. Balestra
_symmetry_space_group_name_H-M     'P 1             '
_symmetry_Int_Tables_number        1

loop_
_symmetry_equiv_pos_site_id
_symmetry_equiv_pos_as_xyz
_cell_length_a                       17.3355
_cell_length_b                        7.6491
_cell_length_c                       10.2476
_cell_angle_alpha                   90.9345
_cell_angle_beta                    91.3975
_cell_angle_gamma                   88.8960

loop_
_atom_site_label
_atom_site_type_symbol
_atom_site_fract_x
_atom_site_fract_y
_atom_site_fract_z
_atom_site_charge
  Ge     Ge        0.052090000000021    0.000000000000000    0.372269999999958  0.0000
  Ge     Ge        0.948948795707624    0.950095614832455    0.631771888415095  0.0000
  Ge     Ge        0.164054795799106    0.299886378219021    0.303213842191152  0.0000
  Ge     Ge        0.842860473337843    0.645133181636268    0.726616900042443  0.0000
  Si     Si        0.457998174530759    0.979287889333369    0.376534769039074  0.0000
  Si     Si        0.546546361950832    0.980613489030600    0.648272644130737  0.0000
  Si     Si        0.561974899912737    0.992176783381319    0.127369408842011  0.0000
  Si     Si        0.949605929696072    0.969669868599011    0.108934445715082  0.0000
  Si     Si        0.442205149638081    0.968472053035357    0.890200155369240  0.0000
  Si     Si        0.059972011079512    0.989355353061456    0.876828550144153  0.0000
  Si     Si        0.350401642049863    0.680994177063165    0.292224035474641  0.0000
  Si     Si        0.827967490975710    0.239056769475788    0.737390803703736  0.0000
  Si     Si        0.662584751499401    0.683632184195424    0.735409629014637  0.0000
  Si     Si        0.650994338097387    0.283444704082573    0.743840753925530  0.0000
  Si     Si        0.171446211360359    0.709178058924693    0.297418788780028  0.0000
  Si     Si        0.345366150164720    0.279130410167485    0.297753645193375  0.0000
  Si     Si        0.659164185424138    0.297421230090824    0.049089492256460  0.0000
  Si     Si        0.848217898637771    0.662345827018747    0.038939158237762  0.0000
  Si     Si        0.337277122404068    0.272201501349187    0.990925229770447  0.0000
  Si     Si        0.165289356289499    0.692429138088601    0.993421611472833  0.0000
  Si     Si        0.343705552356551    0.670138767684459    0.988416160624617  0.0000
  Si     Si        0.159297008816348    0.289014136014049    0.993293252019114  0.0000
  Si     Si        0.671456063990651    0.692989234443163    0.043021216962355  0.0000
  Si     Si        0.836113099267018    0.264585608461184    0.043899627872229  0.0000
  O1     O1        0.100226142616275    0.191974021686334    0.393802985678409  0.0000
  O2     O2        0.406225187083385    0.806591810862956    0.375332357665677  0.0000
  O3     O3        0.870990174471131    0.087009251046942    0.661089522188610  0.0000
  O2     O2        0.605139516568734    0.816541976505880    0.661561328402120  0.0000
  O1     O1        0.911510562631914    0.745997495282039    0.641195924946777  0.0000
  O2     O2        0.590677437215293    0.162367392002891    0.667122095802867  0.0000
  O3     O3        0.124898761670437    0.841872102147204    0.386675215970492  0.0000
  O2     O2        0.403668638811322    0.152197770614971    0.376380903480343  0.0000
  O1     O1        0.978695001608572    0.979312790155818    0.475724964160633  0.0000
  O2     O2        0.511384384287627    0.978005847348544    0.504001541287514  0.0000
  O3     O3        0.016374732629399    0.983904092893125    0.213942046542412  0.0000
  O2     O2        0.512515900211432    0.976850650865107    0.253822702474603  0.0000
  O3     O3        0.030451479047527    0.985177841653713    0.728552838526837  0.0000
  O2     O2        0.477067953041175    0.968856660605447    0.747771841742534  0.0000
  O2     O2        0.604065774064359    0.179017269333993    0.133094611251815  0.0000
  O2     O2        0.906260096580064    0.785155182524687    0.122339503844779  0.0000
  O2     O2        0.385524342967032    0.135771507605789    0.904775617200614  0.0000
  O2     O2        0.114939735737353    0.820165244643661    0.902059087398372  0.0000
  O2     O2        0.395133964717634    0.789982821764832    0.900190757790672  0.0000
  O2     O2        0.104830530795297    0.170097236324545    0.900995765750863  0.0000
  O2     O2        0.625533912805475    0.836326917005037    0.126913894536631  0.0000
  O2     O2        0.887754281564420    0.129488899076638    0.128038746920907  0.0000
  O2     O2        0.509955174508639    0.975275096988358    0.997634898550837  0.0000
  O2     O2        0.984651082107396    0.982004252396262    0.964807001650974  0.0000
  O3     O3        0.142852562582820    0.517389908125776    0.325329369896062  0.0000
  O2     O2        0.371196750301989    0.479322368464758    0.322098910747584  0.0000
  O3     O3        0.860621172192649    0.425036614033492    0.701002936526763  0.0000
  O2     O2        0.632602494396443    0.485947665337294    0.712667146989022  0.0000
  O3     O3        0.259534915982211    0.255293331136905    0.345705082650751  0.0000
  O2     O2        0.262603224566992    0.721487961640584    0.331169471830539  0.0000
  O2     O2        0.737108929503354    0.234543601901845    0.699026182439492  0.0000
  O3     O3        0.748093599776678    0.697572127050432    0.682585829319653  0.0000
  O3     O3        0.149679221123465    0.236450280644783    0.141360065060101  0.0000
  O2     O2        0.360191754296886    0.719655947621186    0.139517922808420  0.0000
  O2     O2        0.839352993459704    0.211159456664283    0.892316199562295  0.0000
  O2     O2        0.663164070317257    0.730583659601551    0.889497269193851  0.0000
  O3     O3        0.855940827310437    0.705015162152010    0.888487336399102  0.0000
  O2     O2        0.644968767944182    0.248734390222577    0.897493097800106  0.0000
  O2     O2        0.156831842175873    0.751632507877654    0.143814624586423  0.0000
  O2     O2        0.348700226516221    0.230919731061757    0.143693962438493  0.0000
  O2     O2        0.638957192702352    0.501652381228572    0.074746275970695  0.0000
  O2     O2        0.869628643806723    0.459047170830593    0.066012561305548  0.0000
  O2     O2        0.365964845753747    0.467152788080267    0.961695689514727  0.0000
  O2     O2        0.136204681461058    0.493719166678338    0.973932675254216  0.0000
  O2     O2        0.748170344292401    0.258798789874756    0.090625502388402  0.0000
  O2     O2        0.761194320265961    0.701845472662631    0.085030891655535  0.0000
  O2     O2        0.247524321518449    0.256601335124369    0.951065131316281  0.0000
  O2     O2        0.253925779012355    0.704080822051001    0.952214746817210  0.0000
