data_c00075.vasp
_audit_creation_method             Generated by GULP
_audit_author_name                 Salvador R. G. Balestra
_symmetry_space_group_name_H-M     'P 1             '
_symmetry_Int_Tables_number        1

loop_
_symmetry_equiv_pos_site_id
_symmetry_equiv_pos_as_xyz
_cell_length_a                       17.1831
_cell_length_b                        7.6000
_cell_length_c                       10.4101
_cell_angle_alpha                   89.5479
_cell_angle_beta                    91.2765
_cell_angle_gamma                   90.6625

loop_
_atom_site_label
_atom_site_type_symbol
_atom_site_fract_x
_atom_site_fract_y
_atom_site_fract_z
_atom_site_charge
  Ge     Ge        0.052090000000021    0.000000000000000    0.372269999999958  0.0000
  Ge     Ge        0.948760424731222    0.019682337141929    0.633912552202092  0.0000
  Ge     Ge        0.559673679151103    0.983453659056234    0.123011998870635  0.0000
  Ge     Ge        0.844959548068146    0.335388788555701    0.704808479909919  0.0000
  Si     Si        0.454388736353730    0.994680316782478    0.368623518040361  0.0000
  Si     Si        0.542670574622420    0.994845552590616    0.636504907379767  0.0000
  Si     Si        0.940927224166807    0.008474484072225    0.126147636971980  0.0000
  Si     Si        0.440228347961683    0.001308893332663    0.883455036184178  0.0000
  Si     Si        0.051736278124327    0.996613723038425    0.896334160553473  0.0000
  Si     Si        0.159605645356554    0.306470077209284    0.276775593147163  0.0000
  Si     Si        0.349961038295131    0.687915071598009    0.270145081642377  0.0000
  Si     Si        0.644076780939336    0.686424576009192    0.725331416484144  0.0000
  Si     Si        0.823495244835104    0.743408639441616    0.716935323043425  0.0000
  Si     Si        0.661988811858670    0.282900906552904    0.713518595901219  0.0000
  Si     Si        0.171635906353052    0.714452485230605    0.273177916454741  0.0000
  Si     Si        0.338534995316772    0.282398244444333    0.271239018933549  0.0000
  Si     Si        0.673272011078199    0.268880853695185    0.013033034449514  0.0000
  Si     Si        0.829758095390000    0.721406480763819    0.017009829590091  0.0000
  Si     Si        0.331032502341233    0.285187080641838    0.971257519628395  0.0000
  Si     Si        0.165480102097747    0.711099503094406    0.974476938028236  0.0000
  Si     Si        0.344879496872474    0.684139056984688    0.969850367162635  0.0000
  Si     Si        0.151171013769845    0.309601309285763    0.978539251659369  0.0000
  Si     Si        0.650213642987179    0.666200246714127    0.022892213578246  0.0000
  Si     Si        0.852894123433144    0.322975343399609    0.009481616669365  0.0000
  O3     O3        0.101365984711690    0.199100689121698    0.363818684956036  0.0000
  O2     O2        0.412156928959956    0.805880513419611    0.347650483334172  0.0000
  O1     O1        0.911492541548683    0.226511982008388    0.616671881396418  0.0000
  O2     O2        0.584168790031741    0.805490663925678    0.643507968645059  0.0000
  O3     O3        0.864521987033947    0.889776517747715    0.632968663935921  0.0000
  O2     O2        0.607352210785554    0.150197663574117    0.631701436999998  0.0000
  O3     O3        0.119101356533808    0.835259564098928    0.356691354081176  0.0000
  O2     O2        0.392259365152188    0.150736658367415    0.352316524404857  0.0000
  O1     O1        0.015229233324996    0.973817145304568    0.522084020357944  0.0000
  O2     O2        0.488044858500464    0.002442022780312    0.511866500828555  0.0000
  O3     O3        0.971771294244284    0.993685959158535    0.270651793066008  0.0000
  O3     O3        0.524918043264979    0.016865310929274    0.273284832924928  0.0000
  O3     O3        0.991951692560450    0.977332539823217    0.781893493318761  0.0000
  O2     O2        0.488565699146020    0.023879359912904    0.756720331207632  0.0000
  O3     O3        0.638495454379654    0.122995097546029    0.103882609272569  0.0000
  O2     O2        0.872260897897657    0.863902335697692    0.107246652457041  0.0000
  O2     O2        0.372512138377080    0.147263813762893    0.881386186251476  0.0000
  O2     O2        0.117449399862442    0.846572309125424    0.886402740911471  0.0000
  O2     O2        0.401632586615134    0.806041045005532    0.886604313342187  0.0000
  O2     O2        0.093227305794935    0.189855615301171    0.892412335802629  0.0000
  O3     O3        0.592638318540879    0.769990219432293    0.111096226783407  0.0000
  O2     O2        0.909901163243972    0.205899173715124    0.099338469495835  0.0000
  O3     O3        0.491670924762900    0.039964885753602    0.008730007547644  0.0000
  O2     O2        0.010859202193573    0.965443939348108    0.032332858641971  0.0000
  O2     O2        0.147649074971533    0.512530274543173    0.299878231818916  0.0000
  O2     O2        0.364891478567891    0.482887570911168    0.301069938458542  0.0000
  O3     O3        0.859433122623290    0.556519703320402    0.682498822560169  0.0000
  O2     O2        0.628964489517643    0.480888113956915    0.696559201246004  0.0000
  O2     O2        0.248877398326756    0.254129947761722    0.309598142205766  0.0000
  O2     O2        0.263039099709562    0.740650352649175    0.308766519233722  0.0000
  O3     O3        0.749500447902079    0.277808537065197    0.665914601173818  0.0000
  O2     O2        0.731237015620594    0.737603740825251    0.685187344181405  0.0000
  O2     O2        0.139735119217836    0.259825839459176    0.127983684405674  0.0000
  O2     O2        0.362339947804896    0.726192404042985    0.119385367489232  0.0000
  O3     O3        0.866406390311275    0.276026564743831    0.862891231343514  0.0000
  O2     O2        0.632139624903485    0.726534243089540    0.875588059214804  0.0000
  O2     O2        0.836060514604940    0.780889092536570    0.869024717868728  0.0000
  O2     O2        0.660540626162828    0.222442901556616    0.862759112117501  0.0000
  O2     O2        0.158273497263399    0.762662631325250    0.123330657514387  0.0000
  O2     O2        0.347460769018769    0.240879904113806    0.120973668804404  0.0000
  O2     O2        0.634645344661566    0.458220205879090    0.039573176714052  0.0000
  O2     O2        0.869807365052706    0.530372543649696    0.035313288498495  0.0000
  O2     O2        0.363053946316876    0.481401837330617    0.940274809931034  0.0000
  O2     O2        0.131885720085137    0.513885678582501    0.951712515442374  0.0000
  O2     O2        0.764606204723439    0.280257581030881    0.045821440543913  0.0000
  O2     O2        0.740153029455264    0.711601356007798    0.058032342334358  0.0000
  O2     O2        0.239354726362637    0.272888867220658    0.939905345157198  0.0000
  O2     O2        0.255210080977993    0.723387372607895    0.934290949288817  0.0000
