data_c00052.vasp
_audit_creation_method             Generated by GULP
_audit_author_name                 Salvador R. G. Balestra
_symmetry_space_group_name_H-M     'P 1             '
_symmetry_Int_Tables_number        1

loop_
_symmetry_equiv_pos_site_id
_symmetry_equiv_pos_as_xyz
_cell_length_a                       17.3032
_cell_length_b                        7.6495
_cell_length_c                       10.2059
_cell_angle_alpha                   89.8248
_cell_angle_beta                    90.0529
_cell_angle_gamma                   90.1964

loop_
_atom_site_label
_atom_site_type_symbol
_atom_site_fract_x
_atom_site_fract_y
_atom_site_fract_z
_atom_site_charge
  Ge     Ge        0.052090000000021    0.000000000000000    0.372269999999958  0.0000
  Ge     Ge        0.451317486831740    0.014877729146364    0.352825792527873  0.0000
  Ge     Ge        0.836948062450150    0.310285982550917    0.707458049886783  0.0000
  Ge     Ge        0.656081013939589    0.337539926705812    0.027098608939442  0.0000
  Si     Si        0.953864983152685    0.017980829047733    0.636322538836933  0.0000
  Si     Si        0.551489872581622    0.023670422354572    0.615918429416219  0.0000
  Si     Si        0.554863216475986    0.023751425766008    0.096335640077066  0.0000
  Si     Si        0.944131385055642    0.016588886424289    0.125031113170599  0.0000
  Si     Si        0.443400125813686    0.023508266116555    0.856259276992340  0.0000
  Si     Si        0.057730194277461    0.013361760378644    0.889761837489105  0.0000
  Si     Si        0.169206578660225    0.292561312016516    0.267208575943620  0.0000
  Si     Si        0.334363784563036    0.727653797456716    0.272747102801076  0.0000
  Si     Si        0.664989059968090    0.730319606007329    0.711953830235942  0.0000
  Si     Si        0.842797390867716    0.720296471967760    0.708396701163638  0.0000
  Si     Si        0.657237877325048    0.326614192361619    0.710838800127022  0.0000
  Si     Si        0.156484623913247    0.695283061151702    0.271179150938847  0.0000
  Si     Si        0.347131902772312    0.323631075154303    0.267347965881779  0.0000
  Si     Si        0.845776864973827    0.710921494886504    0.013946007944392  0.0000
  Si     Si        0.346973252450201    0.329453276875864    0.963100583764607  0.0000
  Si     Si        0.157509836563411    0.703757775563025    0.966151647636726  0.0000
  Si     Si        0.336430383450683    0.730934610374891    0.968028431076824  0.0000
  Si     Si        0.168098270335688    0.305232963236804    0.962109964043702  0.0000
  Si     Si        0.668240928995938    0.737808186744124    0.019600008074453  0.0000
  Si     Si        0.836073845834342    0.310479090290737    0.020855325256262  0.0000
  O3     O3        0.119615516667205    0.163534466881348    0.353590563905737  0.0000
  O3     O3        0.382541472663812    0.851218962976372    0.366752964674850  0.0000
  O3     O3        0.899625905984455    0.185432447988973    0.618378623933455  0.0000
  O2     O2        0.610309920667121    0.863040884706967    0.634885582950026  0.0000
  O2     O2        0.897782372631599    0.848877523079676    0.626194131970732  0.0000
  O2     O2        0.594519202130742    0.208440358110905    0.635373272513229  0.0000
  O3     O3        0.096586858972958    0.800163446323867    0.356505885613920  0.0000
  O3     O3        0.405615575135442    0.214952949294550    0.354489960189687  0.0000
  O3     O3        0.020534691479602    0.011385150639070    0.531135692197371  0.0000
  O3     O3        0.521569093811376    0.011055849497624    0.469407901315369  0.0000
  O3     O3        0.972744857370269    0.020458146687774    0.272795982424916  0.0000
  O3     O3        0.495754894039633    0.971880565586211    0.206201897454529  0.0000
  O2     O2        0.993891526262586    0.026911557875325    0.778736381249761  0.0000
  O2     O2        0.476306323151852    0.009986398316144    0.709616822160660  0.0000
  O3     O3        0.590116626894601    0.216141957172427    0.114730116240168  0.0000
  O2     O2        0.900941274000965    0.832706332920377    0.099941820446633  0.0000
  O2     O2        0.401399358547478    0.210820016679493    0.872821844837621  0.0000
  O2     O2        0.102268294625484    0.827941305343207    0.880285233210579  0.0000
  O2     O2        0.383127952595908    0.865296247189443    0.877462241405162  0.0000
  O2     O2        0.119466666632991    0.171504244751141    0.873293644217541  0.0000
  O2     O2        0.627882812675685    0.892401658526503    0.098388561789951  0.0000
  O2     O2        0.888329223095281    0.181490577327420    0.106544379723079  0.0000
  O2     O2        0.514752830637489    0.007750834640791    0.954443668628421  0.0000
  O2     O2        0.018052538938701    0.033153989765951    0.030859840846761  0.0000
  O2     O2        0.143203885328208    0.490256155379956    0.296566507406801  0.0000
  O2     O2        0.360611517620497    0.527962809729361    0.293548512325004  0.0000
  O3     O3        0.866059461180445    0.523427314212449    0.681928752138316  0.0000
  O2     O2        0.637424411784149    0.531597524216183    0.686525010178670  0.0000
  O2     O2        0.259480952300563    0.269312354664740    0.302020713886871  0.0000
  O2     O2        0.244157242134774    0.747925974623153    0.307750505164791  0.0000
  O3     O3        0.742167428021472    0.287849105046686    0.656498207931874  0.0000
  O2     O2        0.753724138592983    0.753178940784111    0.665148223091250  0.0000
  O2     O2        0.156650278425712    0.252712182302504    0.113563007022208  0.0000
  O2     O2        0.347983223158304    0.780513529313093    0.120249752831272  0.0000
  O3     O3        0.838473030209253    0.252132712078120    0.870607056461648  0.0000
  O2     O2        0.660739578007382    0.773390582237664    0.864941653386586  0.0000
  O2     O2        0.852727915442927    0.765116816733563    0.862183017497111  0.0000
  O3     O3        0.652651920855938    0.283081276436251    0.863771977038570  0.0000
  O2     O2        0.142174769606525    0.742738517537465    0.118619268842873  0.0000
  O2     O2        0.363120874432781    0.278810789514958    0.114280772728002  0.0000
  O3     O3        0.630703297779908    0.552455577637219    0.053181691435305  0.0000
  O2     O2        0.869828775404911    0.508786575978370    0.031974646138003  0.0000
  O2     O2        0.366497057992118    0.534093526078776    0.940326382786711  0.0000
  O2     O2        0.138159924739232    0.501791235135037    0.934139085458420  0.0000
  O3     O3        0.750091323049922    0.304574255824417    0.077199237678069  0.0000
  O2     O2        0.757971620986810    0.735491536428126    0.061675555662255  0.0000
  O2     O2        0.258211732767999    0.291870123528433    0.925155413149390  0.0000
  O2     O2        0.246365605169795    0.744373454811400    0.930529966233032  0.0000
