data_c00001.vasp
_audit_creation_method             Generated by GULP
_audit_author_name                 Salvador R. G. Balestra
_symmetry_space_group_name_H-M     'P 1             '
_symmetry_Int_Tables_number        1

loop_
_symmetry_equiv_pos_site_id
_symmetry_equiv_pos_as_xyz
_cell_length_a                       17.4264
_cell_length_b                        7.6742
_cell_length_c                       10.2250
_cell_angle_alpha                   90.0001
_cell_angle_beta                    89.9997
_cell_angle_gamma                   90.0026

loop_
_atom_site_label
_atom_site_type_symbol
_atom_site_fract_x
_atom_site_fract_y
_atom_site_fract_z
_atom_site_charge
  Ge     Ge        0.052090000000021    0.000000000000000    0.372269999999958  0.0000
  Ge     Ge        0.453990600327615    0.000165687788375    0.372272792372271  0.0000
  Ge     Ge        0.953481691128163    0.000023442833271    0.643533794264791  0.0000
  Ge     Ge        0.552600753057253    0.000140158521233    0.643530819355072  0.0000
  Si     Si        0.557767767496181    0.000091814438655    0.113558390759965  0.0000
  Si     Si        0.948307756148077    0.000075219702421    0.113559694946793  0.0000
  Si     Si        0.442495132378846    0.000161082259309    0.883931806586804  0.0000
  Si     Si        0.063583648950709    0.000001979755051    0.883936195256349  0.0000
  Si     Si        0.164455415808316    0.298471885670235    0.303657511746486  0.0000
  Si     Si        0.341626862393318    0.701691858161810    0.303653259118365  0.0000
  Si     Si        0.840537146965367    0.297748819934160    0.743826128140193  0.0000
  Si     Si        0.665543432424553    0.702416146433340    0.743825027299255  0.0000
  Si     Si        0.840637151573568    0.702184056311043    0.743823119074791  0.0000
  Si     Si        0.665443425390737    0.297980224707259    0.743821299703037  0.0000
  Si     Si        0.164310552352324    0.701325829423812    0.303651122672616  0.0000
  Si     Si        0.341771580864717    0.298839201984408    0.303647028311102  0.0000
  Si     Si        0.664719337026095    0.301175116059170    0.049695233837034  0.0000
  Si     Si        0.841356428622720    0.698990893275967    0.049698230730018  0.0000
  Si     Si        0.342095967253001    0.299785275663236    0.999351570785986  0.0000
  Si     Si        0.163983313786147    0.700378421780308    0.999355439597780  0.0000
  Si     Si        0.341973589476843    0.700682517420948    0.999355596404529  0.0000
  Si     Si        0.164105739645664    0.299480559156116    0.999359705853368  0.0000
  Si     Si        0.664817434008961    0.699185915285620    0.049698230206048  0.0000
  Si     Si        0.841258171883490    0.300980738285074    0.049700237354438  0.0000
  O3     O3        0.110301812730308    0.181575805532450    0.390935448075069  0.0000
  O3     O3        0.395780398075440    0.818585962800746    0.390932513182318  0.0000
  O3     O3        0.898941871818358    0.184932193228615    0.662384093163438  0.0000
  O3     O3        0.607140673449340    0.815231136072470    0.662378276438221  0.0000
  O3     O3        0.899104613650479    0.814849027050868    0.662379440806816  0.0000
  O3     O3        0.606977704390822    0.185315239377503    0.662373993730717  0.0000
  O3     O3        0.110055023645498    0.818024278062319    0.390892450534582  0.0000
  O3     O3        0.396025401074795    0.182142133165765    0.390891423721305  0.0000
  O1     O1        0.980685124088622    0.000164611950590    0.483004580709457  0.0000
  O1     O1        0.525396890287228    0.000000140884411    0.483002084050415  0.0000
  O3     O3        0.014656442572999    0.000277608307488    0.216833336682623  0.0000
  O3     O3        0.491418862577504    0.999896183498707    0.216831433202003  0.0000
  O3     O3        0.036793244260305    0.000112538460281    0.735065072517536  0.0000
  O3     O3        0.469288480849857    0.000050266999708    0.735061619096480  0.0000
  O2     O2        0.610891625637766    0.171875691020976    0.131804146370110  0.0000
  O2     O2        0.895184441574819    0.828290820337332    0.131806425084052  0.0000
  O2     O2        0.393028232810310    0.174009384571155    0.910152539006935  0.0000
  O2     O2        0.113049305275938    0.826153140028901    0.910159925396025  0.0000
  O2     O2        0.392818918535402    0.826621245052587    0.910145357305731  0.0000
  O2     O2        0.113259689529970    0.173541112136920    0.910151978618663  0.0000
  O2     O2        0.611054836440297    0.828590447983213    0.131814317005971  0.0000
  O2     O2        0.895019816002074    0.171574732930095    0.131815454832566  0.0000
  O2     O2        0.520265823983132    0.999953455515034    0.969029388733832  0.0000
  O2     O2        0.985811245343525    0.000211906810331    0.969031217595088  0.0000
  O2     O2        0.145058808561609    0.499866833311403    0.330099726851096  0.0000
  O2     O2        0.361024312429652    0.500297723193647    0.330095066407950  0.0000
  O2     O2        0.857651754466999    0.499947979873895    0.715942552298074  0.0000
  O2     O2        0.648428885748782    0.500216568454916    0.715943461774120  0.0000
  O2     O2        0.253127568491126    0.260544216953909    0.337706244866960  0.0000
  O2     O2        0.252954760822967    0.739620785067518    0.337706126421978  0.0000
  O2     O2        0.752978970606907    0.252886790518646    0.703662086908450  0.0000
  O2     O2        0.753102112385478    0.747277774077600    0.703662651853991  0.0000
  O2     O2        0.149798417792152    0.252770239258028    0.150769091628450  0.0000
  O2     O2        0.356282518768603    0.747392370178399    0.150764479805811  0.0000
  O2     O2        0.851325146049758    0.256576116906727    0.897273649802218  0.0000
  O2     O2        0.654752012129910    0.743593385077593    0.897271734541014  0.0000
  O2     O2        0.851446890858114    0.743363310134402    0.897269375169195  0.0000
  O2     O2        0.654630225534830    0.256798494440271    0.897266589088253  0.0000
  O2     O2        0.149633567797977    0.747018224123413    0.150765721329432  0.0000
  O2     O2        0.356447377855737    0.253147045713337    0.150761189240748  0.0000
  O2     O2        0.639822293510750    0.500206773002468    0.079180069845254  0.0000
  O2     O2        0.866252557374188    0.499959609178039    0.079185123117439  0.0000
  O2     O2        0.365711715751577    0.500272682481827    0.971285555861407  0.0000
  O2     O2        0.140367515191491    0.499890513023166    0.971291497910159  0.0000
  O2     O2        0.752982552734467    0.273356419078973    0.092076906744808  0.0000
  O2     O2        0.753092603118330    0.726810612502945    0.092077502884909  0.0000
  O2     O2        0.253108785898227    0.271424845840583    0.963237584192188  0.0000
  O2     O2        0.252970134002005    0.728739246694240    0.963237392194629  0.0000
