data_c00033.vasp
_audit_creation_method             Generated by GULP
_audit_author_name                 Salvador R. G. Balestra
_symmetry_space_group_name_H-M     'P 1             '
_symmetry_Int_Tables_number        1

loop_
_symmetry_equiv_pos_site_id
_symmetry_equiv_pos_as_xyz
_cell_length_a                       17.2232
_cell_length_b                        7.6377
_cell_length_c                       10.2182
_cell_angle_alpha                   90.3313
_cell_angle_beta                    90.1884
_cell_angle_gamma                   89.3587

loop_
_atom_site_label
_atom_site_type_symbol
_atom_site_fract_x
_atom_site_fract_y
_atom_site_fract_z
_atom_site_charge
  Ge     Ge        0.052090000000021    0.000000000000000    0.372269999999958  0.0000
  Ge     Ge        0.453597153087105    0.971233860367214    0.372121564532200  0.0000
  Ge     Ge        0.445945695811574    0.962999025445607    0.894350886823415  0.0000
  Ge     Ge        0.168668017764713    0.701137955625361    0.962642715244045  0.0000
  Si     Si        0.947599929772962    0.985361969746515    0.631731185016990  0.0000
  Si     Si        0.551082595057513    0.984902782950616    0.637586335491660  0.0000
  Si     Si        0.561746255128287    0.984409407155724    0.131139072406477  0.0000
  Si     Si        0.944749901783846    0.976757825921841    0.119955229522172  0.0000
  Si     Si        0.053696388788180    0.986953316442823    0.882146025913455  0.0000
  Si     Si        0.153868973896299    0.306886103721330    0.276605557685503  0.0000
  Si     Si        0.350079945137901    0.662902191591834    0.264868143042668  0.0000
  Si     Si        0.842078900804474    0.290780507471761    0.702839868794097  0.0000
  Si     Si        0.657067785172816    0.678746724812285    0.710533747113198  0.0000
  Si     Si        0.836899920886915    0.691761658832737    0.708882035971080  0.0000
  Si     Si        0.663253147314805    0.277287809474241    0.706335269540784  0.0000
  Si     Si        0.173272250424081    0.713463911651712    0.271947344979783  0.0000
  Si     Si        0.331982427532484    0.258865989932859    0.271647242019530  0.0000
  Si     Si        0.667461092728856    0.273607515644149    0.012973207325710  0.0000
  Si     Si        0.837427459291318    0.686816092244539    0.014620768411687  0.0000
  Si     Si        0.327024734884457    0.248800405363273    0.968665489538347  0.0000
  Si     Si        0.349501766521339    0.644009790878640    0.958977380124249  0.0000
  Si     Si        0.146984193237118    0.299410105423222    0.974584287377996  0.0000
  Si     Si        0.657763603976239    0.673338133916832    0.015808900601058  0.0000
  Si     Si        0.846278096735557    0.287440544839215    0.009415034452013  0.0000
  O3     O3        0.094308782279398    0.204100717914179    0.365287992587580  0.0000
  O3     O3        0.413809632480417    0.768271308919395    0.343882258929876  0.0000
  O2     O2        0.897585678390464    0.165484186055548    0.616887750080207  0.0000
  O2     O2        0.600938926952336    0.803636171156943    0.626572354449684  0.0000
  O2     O2        0.888269246880372    0.822345778245666    0.623914777555548  0.0000
  O2     O2        0.609825816579644    0.148531638347617    0.621350060896455  0.0000
  O3     O3        0.123400723718729    0.841142311905296    0.361837454032812  0.0000
  O3     O3        0.383283125292322    0.132055989332758    0.359003084056456  0.0000
  O3     O3        0.012824554050456    0.972959033670712    0.524952934632995  0.0000
  O3     O3        0.483501990184516    0.983722179064258    0.533013606481672  0.0000
  O3     O3        0.975387295505125    0.976999251411069    0.265949152507311  0.0000
  O3     O3        0.536532297351415    0.997551956250364    0.280647683276622  0.0000
  O2     O2        0.988838889192913    0.982374157909746    0.772316676854977  0.0000
  O3     O3        0.514024890998713    0.004955047934156    0.779985751040464  0.0000
  O2     O2        0.620640720464305    0.140155891997315    0.100327728998404  0.0000
  O2     O2        0.883676716250835    0.819828857041219    0.105582964952300  0.0000
  O3     O3        0.366870619310873    0.104829616960743    0.879257141002517  0.0000
  O3     O3        0.120361848083050    0.843305427130810    0.860281671453374  0.0000
  O3     O3        0.411733085921418    0.751625636534889    0.878476136534463  0.0000
  O2     O2        0.091505078060893    0.179221491371548    0.886598495854600  0.0000
  O2     O2        0.602019743592369    0.795719316956589    0.101864894871667  0.0000
  O2     O2        0.904176883025263    0.163808634227793    0.089695120392432  0.0000
  O3     O3        0.484168314220949    0.003768575669141    0.047187986531629  0.0000
  O2     O2        0.016039043227248    0.939850544486992    0.022293389734888  0.0000
  O2     O2        0.142506980578689    0.515314482808347    0.288503107909790  0.0000
  O2     O2        0.363176012514837    0.456252422909318    0.287644300907222  0.0000
  O2     O2        0.861314973413200    0.492616975679605    0.672486410620481  0.0000
  O2     O2        0.637900549299251    0.477388817065028    0.676847410947389  0.0000
  O2     O2        0.242010217483372    0.253009130755471    0.315475377147254  0.0000
  O2     O2        0.263990826525971    0.720015070957840    0.313132291759904  0.0000
  O2     O2        0.752972546992970    0.250215817985359    0.666201067000129  0.0000
  O2     O2        0.746120943283210    0.720929178208012    0.676204224137008  0.0000
  O2     O2        0.136385167293382    0.247898774417232    0.126902646361170  0.0000
  O2     O2        0.356656899613306    0.706050317642527    0.110813049853529  0.0000
  O2     O2        0.856805204476616    0.251324744305734    0.855511305262894  0.0000
  O2     O2        0.641234954577041    0.715456294540570    0.863899094788366  0.0000
  O2     O2        0.850921792703347    0.729549050282422    0.862385752359412  0.0000
  O2     O2        0.653807585630772    0.234683263672541    0.859835232514787  0.0000
  O3     O3        0.164619659225320    0.772904553524302    0.122610456662764  0.0000
  O2     O2        0.338158745502027    0.196194773216554    0.120841758065833  0.0000
  O2     O2        0.638692491321993    0.471178668718671    0.045828268003606  0.0000
  O2     O2        0.866143731035013    0.488734973181201    0.043715082569971  0.0000
  O2     O2        0.366610532477496    0.437081506576486    0.944405075083377  0.0000
  O3     O3        0.125256865427129    0.498677492509515    0.950132809996035  0.0000
  O2     O2        0.757816497239104    0.249444915737495    0.049149056171472  0.0000
  O2     O2        0.747086436949048    0.709965137429566    0.049873868238113  0.0000
  O2     O2        0.236236898758071    0.264742454873713    0.933834225737084  0.0000
  O3     O3        0.263208891499965    0.688305750161167    0.909975371603982  0.0000
