data_c00082.vasp
_audit_creation_method             Generated by GULP
_audit_author_name                 Salvador R. G. Balestra
_symmetry_space_group_name_H-M     'P 1             '
_symmetry_Int_Tables_number        1

loop_
_symmetry_equiv_pos_site_id
_symmetry_equiv_pos_as_xyz
_cell_length_a                       17.3884
_cell_length_b                        7.6636
_cell_length_c                       10.1573
_cell_angle_alpha                   90.2426
_cell_angle_beta                    91.0836
_cell_angle_gamma                   89.7086

loop_
_atom_site_label
_atom_site_type_symbol
_atom_site_fract_x
_atom_site_fract_y
_atom_site_fract_z
_atom_site_charge
  Ge     Ge        0.052090000000021    0.000000000000000    0.372269999999958  0.0000
  Ge     Ge        0.944846258924168    0.986526676781486    0.629370605086136  0.0000
  Ge     Ge        0.946341123300591    0.992137864686001    0.103709349316341  0.0000
  Ge     Ge        0.168379719129388    0.294963234864925    0.301102538159003  0.0000
  Si     Si        0.455338348015467    0.002316429605212    0.384757581902897  0.0000
  Si     Si        0.548032308871201    0.000255821912568    0.652193024440262  0.0000
  Si     Si        0.557306216445564    0.001664960059334    0.139971524378696  0.0000
  Si     Si        0.441126666863373    0.996136958061355    0.901087284992365  0.0000
  Si     Si        0.058608382324236    0.998575489429357    0.867073687499437  0.0000
  Si     Si        0.344520398021509    0.706889043768146    0.287199551089985  0.0000
  Si     Si        0.830292052090043    0.281097298170875    0.735797687101278  0.0000
  Si     Si        0.659898064911837    0.704138806306592    0.730254055839706  0.0000
  Si     Si        0.837096013817697    0.687911998366155    0.735340573290579  0.0000
  Si     Si        0.653312435565356    0.303550766330765    0.730462826471880  0.0000
  Si     Si        0.166254635550186    0.705798417547650    0.296672889793718  0.0000
  Si     Si        0.348414939425346    0.305194212366059    0.292154110744465  0.0000
  Si     Si        0.653278302572657    0.308958590575633    0.038724397798780  0.0000
  Si     Si        0.840087318842611    0.684809598830283    0.039965232412726  0.0000
  Si     Si        0.339308581052767    0.303547637391905    0.981670789816177  0.0000
  Si     Si        0.158740099962751    0.696905844430966    0.989917572813305  0.0000
  Si     Si        0.336385459709844    0.699989493573257    0.979462993607819  0.0000
  Si     Si        0.162147945619770    0.292725391682543    0.987849477207963  0.0000
  Si     Si        0.662594941837694    0.704872494273521    0.038625472053685  0.0000
  Si     Si        0.830513791696984    0.284259454000779    0.040554992395560  0.0000
  O1     O1        0.109359556014877    0.179298270437903    0.398053420701699  0.0000
  O2     O2        0.398316508946730    0.839225201217451    0.367424928542244  0.0000
  O3     O3        0.884437933755176    0.163495316100086    0.648646088584962  0.0000
  O2     O2        0.606529373678665    0.836133095547550    0.647034326817451  0.0000
  O3     O3        0.894881511611345    0.794871124193357    0.648991423772871  0.0000
  O2     O2        0.596332150646001    0.179351009137834    0.647519152257554  0.0000
  O3     O3        0.115090725060011    0.824591810844493    0.387756662376643  0.0000
  O2     O2        0.410293093558217    0.184469730352830    0.366995026102378  0.0000
  O1     O1        0.974073214032588    0.988056703569683    0.469083135767975  0.0000
  O2     O2        0.489406659314140    0.993496898344203    0.530858910580728  0.0000
  O1     O1        0.020016280858774    0.009340784209745    0.211281954413682  0.0000
  O2     O2        0.526068376144464    0.991527221465019    0.286280724723505  0.0000
  O3     O3        0.031641971092568    0.995883585552887    0.715757388995406  0.0000
  O2     O2        0.498615215354270    0.991542288173212    0.782472227861965  0.0000
  O2     O2        0.598573974211757    0.187312811314058    0.122641314262758  0.0000
  O3     O3        0.897472847210529    0.797642357636505    0.127015737037990  0.0000
  O2     O2        0.391934882736418    0.175052985801461    0.896751765777889  0.0000
  O2     O2        0.103679470813842    0.819138805744868    0.902232432900579  0.0000
  O2     O2        0.383945153196411    0.831071003529875    0.889756529074448  0.0000
  O2     O2        0.110594036656590    0.168923939011340    0.894569399593063  0.0000
  O2     O2        0.617046069163880    0.843361426668216    0.124787048193763  0.0000
  O3     O3        0.880611749217796    0.159599609435548    0.130550248804539  0.0000
  O2     O2        0.487155998434855    0.981608263438143    0.038020684775542  0.0000
  O3     O3        0.980199242485420    0.008531578555369    0.945858694454284  0.0000
  O3     O3        0.143963417269442    0.509281365405099    0.323867930338197  0.0000
  O2     O2        0.368651120768109    0.508035435967895    0.320044677310384  0.0000
  O2     O2        0.853343711951713    0.482593203264440    0.716647155368895  0.0000
  O2     O2        0.635174140205726    0.505515457113169    0.697228512743412  0.0000
  O3     O3        0.264288192556575    0.262708962012242    0.341832258609419  0.0000
  O2     O2        0.256603243901630    0.738025158258877    0.328171550090941  0.0000
  O2     O2        0.740824665870019    0.257049827953238    0.693637629912434  0.0000
  O2     O2        0.748773350003425    0.731771683892422    0.693266756639693  0.0000
  O3     O3        0.153491091114750    0.235938085775381    0.137270595951922  0.0000
  O2     O2        0.352393711742980    0.743679181502612    0.132384088062593  0.0000
  O2     O2        0.840786128918382    0.225664928216464    0.888315556689655  0.0000
  O2     O2        0.649633790403644    0.745185617968162    0.884576197273053  0.0000
  O2     O2        0.851048474786396    0.741813916196522    0.887899385991882  0.0000
  O2     O2        0.640299903219013    0.268039616396065    0.884574056447330  0.0000
  O2     O2        0.149248082967535    0.750068242580757    0.142192476429815  0.0000
  O2     O2        0.351394807223584    0.266321453624859    0.136144940778600  0.0000
  O2     O2        0.632456785654744    0.510361730459695    0.069436267968220  0.0000
  O2     O2        0.859970470878192    0.481775382780189    0.059632288887786  0.0000
  O2     O2        0.362433592453044    0.501958811891696    0.947976434502500  0.0000
  O2     O2        0.134983986986357    0.494543534298323    0.969694728813909  0.0000
  O2     O2        0.741435347864669    0.271193831998844    0.079263117105469  0.0000
  O2     O2        0.751981125880691    0.720827312766083    0.078649103486919  0.0000
  O2     O2        0.250306921213189    0.272667384206670    0.943361762831649  0.0000
  O2     O2        0.246211546311900    0.724345149919492    0.945798277265806  0.0000
