data_c00196.vasp
_audit_creation_method             Generated by GULP
_audit_author_name                 Salvador R. G. Balestra
_symmetry_space_group_name_H-M     'P 1             '
_symmetry_Int_Tables_number        1

loop_
_symmetry_equiv_pos_site_id
_symmetry_equiv_pos_as_xyz
_cell_length_a                       17.3904
_cell_length_b                        7.6514
_cell_length_c                       10.0068
_cell_angle_alpha                   90.3740
_cell_angle_beta                    91.0071
_cell_angle_gamma                   90.5791

loop_
_atom_site_label
_atom_site_type_symbol
_atom_site_fract_x
_atom_site_fract_y
_atom_site_fract_z
_atom_site_charge
  Ge     Ge        0.052090000000021    0.000000000000000    0.372269999999958  0.0000
  Ge     Ge        0.555631974304541    0.003209571387980    0.109093516200308  0.0000
  Ge     Ge        0.436608586277570    0.016325883594452    0.859323913938383  0.0000
  Ge     Ge        0.658767953928849    0.705805795001155    0.724924196977933  0.0000
  Si     Si        0.446746264430130    0.019812105772358    0.359025506374004  0.0000
  Si     Si        0.945559311479659    0.999915249056941    0.625248273132916  0.0000
  Si     Si        0.546255036310193    0.997734051514273    0.615760609058388  0.0000
  Si     Si        0.946648570455680    0.011898827065839    0.108976802238627  0.0000
  Si     Si        0.054281119415243    0.998453888312429    0.869455472311181  0.0000
  Si     Si        0.167508288333403    0.292185674375580    0.295140805749202  0.0000
  Si     Si        0.334424974406170    0.725977777430113    0.288938169719104  0.0000
  Si     Si        0.836275520526949    0.295462479531225    0.727655905342567  0.0000
  Si     Si        0.838412541079584    0.698108550702707    0.721103039643550  0.0000
  Si     Si        0.659096834398865    0.289970695696931    0.730349595292318  0.0000
  Si     Si        0.156379062764453    0.694314898927945    0.297012978485798  0.0000
  Si     Si        0.344973707830997    0.324666853316045    0.287403313574892  0.0000
  Si     Si        0.662190623938107    0.309427424237394    0.040326399360181  0.0000
  Si     Si        0.842746716631564    0.701463647062463    0.036960020298502  0.0000
  Si     Si        0.339790416326039    0.326843353424108    0.975988937906153  0.0000
  Si     Si        0.148027597203905    0.692230287728253    0.986691672947240  0.0000
  Si     Si        0.325876485463087    0.726160663265718    0.977750771016613  0.0000
  Si     Si        0.161956442972461    0.291910852372554    0.983670630592721  0.0000
  Si     Si        0.666465870885470    0.711799954191245    0.040926511314942  0.0000
  Si     Si        0.839035709760338    0.306958357772575    0.041133575757784  0.0000
  O3     O3        0.119508342947530    0.167481966288400    0.388700596814205  0.0000
  O2     O2        0.385779070114007    0.859626117696428    0.378328551610799  0.0000
  O2     O2        0.890978456584543    0.165392076747163    0.648934390230348  0.0000
  O3     O3        0.592082725859608    0.818985390680877    0.632948028067359  0.0000
  O2     O2        0.898574720858504    0.819859302416746    0.644558592666572  0.0000
  O2     O2        0.604950832021629    0.157443699781643    0.647539029193122  0.0000
  O3     O3        0.101963259115440    0.806617324637986    0.388817368655032  0.0000
  O2     O2        0.402850411135435    0.205013911902882    0.373230740517356  0.0000
  O3     O3        0.975362217125287    0.009889118571361    0.476251932026942  0.0000
  O2     O2        0.518227256782986    0.012052311884328    0.461451088082707  0.0000
  O3     O3        0.014360606212863    0.020127541955013    0.213690621602188  0.0000
  O3     O3        0.479170471466760    0.000002507922592    0.212236041780280  0.0000
  O2     O2        0.023223595354462    0.004088918855749    0.717207275511564  0.0000
  O3     O3        0.468425543833468    0.007417769472287    0.697448643860887  0.0000
  O3     O3        0.607972572434015    0.195636760444708    0.130975779800833  0.0000
  O2     O2        0.898384440547378    0.831195075082632    0.120165351536965  0.0000
  O3     O3        0.396437063254464    0.219002603879193    0.886474137088737  0.0000
  O2     O2        0.091805580743575    0.809554951497294    0.896746039655372  0.0000
  O3     O3        0.366813577564249    0.858336214164065    0.881536018664263  0.0000
  O2     O2        0.115884763391715    0.154765547833676    0.890530345147815  0.0000
  O3     O3        0.617228365150299    0.830143350054765    0.136794255858970  0.0000
  O2     O2        0.889477948066732    0.175070849378288    0.128688783455564  0.0000
  O1     O1        0.517089672521620    0.981114821810214    0.952073024937110  0.0000
  O2     O2        0.981326915459800    0.026596359106002    0.961475934202585  0.0000
  O2     O2        0.141957036928268    0.490387869337251    0.323404736489139  0.0000
  O2     O2        0.362356530606068    0.528646984656552    0.318008993412377  0.0000
  O2     O2        0.858588637941540    0.495109241668487    0.692387381451808  0.0000
  O3     O3        0.635015737798563    0.487105723186651    0.705417464901073  0.0000
  O2     O2        0.258256629787553    0.275299812962835    0.327018337515639  0.0000
  O2     O2        0.245459542695036    0.744685639312719    0.327382708609644  0.0000
  O2     O2        0.747267661801538    0.260242185661215    0.685883858640738  0.0000
  O3     O3        0.752327860273567    0.736110508542694    0.672241717219836  0.0000
  O2     O2        0.152158951949113    0.242853712150491    0.138948181652747  0.0000
  O2     O2        0.344244044030603    0.772857805938675    0.132909724301077  0.0000
  O2     O2        0.845994741161133    0.261720554783840    0.884950171835180  0.0000
  O3     O3        0.654359988060793    0.773781598112108    0.888867840259027  0.0000
  O2     O2        0.845802027144091    0.737874290368782    0.879165210363395  0.0000
  O2     O2        0.650589176812679    0.243875709206348    0.886978989319803  0.0000
  O2     O2        0.135541440129419    0.737964859940321    0.142207127683427  0.0000
  O2     O2        0.357630020905620    0.283575961636652    0.131175194066706  0.0000
  O2     O2        0.638417933777816    0.511073926368945    0.050762484256571  0.0000
  O2     O2        0.869093670799245    0.504297599183874    0.069219132589490  0.0000
  O2     O2        0.355550341491025    0.530944119701374    0.948525159672704  0.0000
  O2     O2        0.130153458770529    0.487348662655505    0.958137875550803  0.0000
  O2     O2        0.750969685419340    0.286983100444320    0.085025280362300  0.0000
  O2     O2        0.755975426766101    0.729044666119763    0.084208260500359  0.0000
  O2     O2        0.250776891542404    0.280160256843812    0.943189638937376  0.0000
  O2     O2        0.235022328890170    0.736381833922607    0.948308032995999  0.0000
