data_c00173.vasp
_audit_creation_method             Generated by GULP
_audit_author_name                 Salvador R. G. Balestra
_symmetry_space_group_name_H-M     'P 1             '
_symmetry_Int_Tables_number        1

loop_
_symmetry_equiv_pos_site_id
_symmetry_equiv_pos_as_xyz
_cell_length_a                       17.3214
_cell_length_b                        7.6291
_cell_length_c                       10.1523
_cell_angle_alpha                   90.1531
_cell_angle_beta                    89.7656
_cell_angle_gamma                   90.1728

loop_
_atom_site_label
_atom_site_type_symbol
_atom_site_fract_x
_atom_site_fract_y
_atom_site_fract_z
_atom_site_charge
  Ge     Ge        0.052090000000021    0.000000000000000    0.372269999999958  0.0000
  Ge     Ge        0.553694345265979    0.002883528603363    0.623292938428927  0.0000
  Ge     Ge        0.653934760821047    0.330573494016831    0.040364424838710  0.0000
  Ge     Ge        0.346452872042041    0.337090285002081    0.968303803823265  0.0000
  Si     Si        0.449813617042423    0.007503990216089    0.362508463293023  0.0000
  Si     Si        0.951349156273887    0.000268831386765    0.635116632251099  0.0000
  Si     Si        0.551166500399684    0.021626329660243    0.109976777323706  0.0000
  Si     Si        0.944028810648322    0.019420297912920    0.114640404638211  0.0000
  Si     Si        0.441464821919861    0.024771164289320    0.866729506858057  0.0000
  Si     Si        0.056157377318617    0.011207373855880    0.878027174864216  0.0000
  Si     Si        0.170041229928833    0.288827602285360    0.287392302266991  0.0000
  Si     Si        0.335832534031144    0.718011666511584    0.294791179425476  0.0000
  Si     Si        0.837541318532268    0.294474197955751    0.739080766368520  0.0000
  Si     Si        0.670113754614055    0.715765157914404    0.721431625045039  0.0000
  Si     Si        0.847601861890213    0.696085202011477    0.728171326375270  0.0000
  Si     Si        0.661789045479018    0.306020414654250    0.729884940371681  0.0000
  Si     Si        0.158252405406597    0.692832374291330    0.300690661372619  0.0000
  Si     Si        0.348937581394792    0.316216285017393    0.281976808001384  0.0000
  Si     Si        0.843316884211269    0.709191531127984    0.035504460024431  0.0000
  Si     Si        0.153443880748327    0.706662602999698    0.995078503390565  0.0000
  Si     Si        0.331718685494705    0.740520191883495    0.985612500077328  0.0000
  Si     Si        0.163973853764159    0.305158450938055    0.981091054517134  0.0000
  Si     Si        0.664385271820278    0.737324857527704    0.025203256443355  0.0000
  Si     Si        0.833470567407568    0.314434460971425    0.050408259686701  0.0000
  O3     O3        0.122090386152651    0.161889023296706    0.379482156497845  0.0000
  O2     O2        0.387562957215771    0.849995829798725    0.381285332849827  0.0000
  O2     O2        0.893796580109351    0.158583657529824    0.668938343233924  0.0000
  O3     O3        0.617477630410862    0.829652171239272    0.628065250122027  0.0000
  O2     O2        0.906571359377880    0.814638705458923    0.644991348102759  0.0000
  O3     O3        0.603014237278973    0.197483871439504    0.641956275823084  0.0000
  O3     O3        0.099798255888842    0.802174517009209    0.389106141074884  0.0000
  O2     O2        0.404922738037421    0.193435296065131    0.367772973125692  0.0000
  O3     O3        0.981006517959146    0.023111211353979    0.488099260151839  0.0000
  O3     O3        0.516358738649361    0.003323766142560    0.467273506010357  0.0000
  O3     O3        0.008684328336949    0.021877390776496    0.222013780270418  0.0000
  O2     O2        0.489785803517975    0.976402364920916    0.221221667763539  0.0000
  O2     O2        0.026751727728036    0.002960312053554    0.728208674139489  0.0000
  O3     O3        0.474563865443117    0.978442108090996    0.724978594596898  0.0000
  O3     O3        0.587549465617955    0.212609224014470    0.130746114709833  0.0000
  O2     O2        0.894951407169806    0.839084246994349    0.122580812630193  0.0000
  O3     O3        0.408201531463456    0.220785818751670    0.868816705508718  0.0000
  O2     O2        0.097891075856005    0.828268809698006    0.910085525810777  0.0000
  O2     O2        0.370290211503806    0.898635941570965    0.906301528031915  0.0000
  O2     O2        0.113793797295367    0.175828825398749    0.890877842063997  0.0000
  O2     O2        0.621574065998201    0.883023367216373    0.111975029877412  0.0000
  O2     O2        0.885991649954319    0.182758079138459    0.133429973984811  0.0000
  O2     O2        0.511491402868778    0.004696713047696    0.968077719330281  0.0000
  O2     O2        0.982576821407580    0.038635036539525    0.971048093513745  0.0000
  O2     O2        0.142246115326098    0.486888936592474    0.315823317284606  0.0000
  O2     O2        0.365783447696977    0.519907808393013    0.316160792259814  0.0000
  O2     O2        0.866322074747451    0.491214255781478    0.704466918185298  0.0000
  O2     O2        0.645511687107425    0.512732819659184    0.713457239121141  0.0000
  O2     O2        0.260645233939110    0.270678441543350    0.318480058328791  0.0000
  O2     O2        0.246831984286226    0.734556351685928    0.340179351030536  0.0000
  O2     O2        0.750414916285160    0.265260529854741    0.686965426509966  0.0000
  O2     O2        0.760281827499637    0.735976146348918    0.682756700929486  0.0000
  O2     O2        0.158056824519831    0.242972216897972    0.132922127557965  0.0000
  O2     O2        0.342196351856831    0.768742729284739    0.141606219002564  0.0000
  O2     O2        0.835374140165894    0.266495741993101    0.895615558117255  0.0000
  O2     O2        0.657691005883080    0.785120649450997    0.870648360954219  0.0000
  O2     O2        0.857873275896884    0.745281783545212    0.881321650553379  0.0000
  O3     O3        0.648490727402263    0.253531449809265    0.880772793432285  0.0000
  O2     O2        0.143552455712073    0.752673493358332    0.149346910900142  0.0000
  O3     O3        0.364732532985793    0.279342533972795    0.129288379351377  0.0000
  O3     O3        0.628189235886108    0.547925433606853    0.051055393822688  0.0000
  O2     O2        0.866515181095225    0.511031178918301    0.072098296590447  0.0000
  O3     O3        0.367697505906222    0.556198428545860    0.944226004835132  0.0000
  O2     O2        0.131878201464959    0.503711557957041    0.968273510399878  0.0000
  O3     O3        0.746217153146937    0.303278802391591    0.099903462884838  0.0000
  O2     O2        0.753571344013152    0.737512845828905    0.069036155010733  0.0000
  O3     O3        0.251178314623851    0.298171142495808    0.931407464569232  0.0000
  O2     O2        0.241210237727692    0.740817604290157    0.950314600847275  0.0000
