data_c00165.vasp
_audit_creation_method             Generated by GULP
_audit_author_name                 Salvador R. G. Balestra
_symmetry_space_group_name_H-M     'P 1             '
_symmetry_Int_Tables_number        1

loop_
_symmetry_equiv_pos_site_id
_symmetry_equiv_pos_as_xyz
_cell_length_a                       17.2980
_cell_length_b                        7.6454
_cell_length_c                       10.1952
_cell_angle_alpha                   89.1386
_cell_angle_beta                    89.9047
_cell_angle_gamma                   89.9309

loop_
_atom_site_label
_atom_site_type_symbol
_atom_site_fract_x
_atom_site_fract_y
_atom_site_fract_z
_atom_site_charge
  Ge     Ge        0.052090000000021    0.000000000000000    0.372269999999958  0.0000
  Ge     Ge        0.554145506269363    0.020295796598776    0.624146758289239  0.0000
  Ge     Ge        0.339328247679988    0.721260879256672    0.287087552203326  0.0000
  Ge     Ge        0.845702624243823    0.678050804913443    0.052015409154402  0.0000
  Si     Si        0.455601073107909    0.007304117016345    0.361983620185071  0.0000
  Si     Si        0.951835183716460    0.005588432388776    0.636146301590001  0.0000
  Si     Si        0.550748307316335    0.994696263279236    0.100931248354524  0.0000
  Si     Si        0.945536462360374    0.991363143622225    0.118862763731746  0.0000
  Si     Si        0.438061192325570    0.009528888016100    0.862979931090855  0.0000
  Si     Si        0.057442248775516    0.999702645741742    0.879375752853456  0.0000
  Si     Si        0.171151717719346    0.285634007168769    0.293467534800298  0.0000
  Si     Si        0.838932523251430    0.299078783237462    0.730962530460399  0.0000
  Si     Si        0.671708542635715    0.724284901406550    0.732414792576586  0.0000
  Si     Si        0.848117960885634    0.700984009538475    0.736491847323196  0.0000
  Si     Si        0.661679202684734    0.319684726385535    0.721967113536115  0.0000
  Si     Si        0.157334483164723    0.691602596492824    0.291562196441380  0.0000
  Si     Si        0.349965789412760    0.311793158662195    0.285722737377981  0.0000
  Si     Si        0.653070060864837    0.304859811103282    0.026085990650103  0.0000
  Si     Si        0.343693181439426    0.316498095329217    0.978925917192432  0.0000
  Si     Si        0.154785957500974    0.691140317683322    0.985864577843939  0.0000
  Si     Si        0.334048025399639    0.716768318968280    0.974458363856774  0.0000
  Si     Si        0.164792333630675    0.290115484729887    0.988870320882963  0.0000
  Si     Si        0.664997570876176    0.703696218764102    0.038913088538339  0.0000
  Si     Si        0.831258026960492    0.277473307216353    0.039742202107675  0.0000
  O3     O3        0.122980529927763    0.158389972919129    0.386045678009884  0.0000
  O3     O3        0.394999730963086    0.851071544455646    0.384043510512342  0.0000
  O2     O2        0.894073851004285    0.168802254044725    0.653554839625203  0.0000
  O3     O3        0.617234917527781    0.850121166959250    0.650634146818998  0.0000
  O2     O2        0.907424183133740    0.822536225642389    0.656316755332116  0.0000
  O3     O3        0.603514309510595    0.215262449093293    0.633028339005447  0.0000
  O3     O3        0.095838862857467    0.797117076404691    0.375432621465091  0.0000
  O2     O2        0.407468909470994    0.188415900955892    0.368274275386963  0.0000
  O3     O3        0.982620413205006    0.014319662935227    0.490072496463694  0.0000
  O3     O3        0.523925171843165    0.004453812553029    0.464067984201832  0.0000
  O3     O3        0.005155972046759    0.044067254347510    0.227182990295624  0.0000
  O2     O2        0.489377250746525    0.981803628378630    0.216200146341743  0.0000
  O2     O2        0.026032740603922    0.016081753537279    0.731774956476311  0.0000
  O3     O3        0.471371186311953    0.013121936822941    0.717860826438729  0.0000
  O2     O2        0.595972586628600    0.179321961709978    0.108120993090681  0.0000
  O3     O3        0.911008138723628    0.798222158021940    0.140497480022075  0.0000
  O2     O2        0.396997408069523    0.195124845316716    0.890086157697787  0.0000
  O2     O2        0.099517893525765    0.812116905994842    0.897085961312529  0.0000
  O2     O2        0.377382869391869    0.850400109879460    0.876436804627425  0.0000
  O2     O2        0.117086458164904    0.158008837751326    0.900361784854157  0.0000
  O2     O2        0.609890892307910    0.833112811523306    0.118511626875944  0.0000
  O2     O2        0.870924683858191    0.119204038089694    0.118310564948648  0.0000
  O2     O2        0.509448107533740    0.977604866031265    0.960986777176226  0.0000
  O2     O2        0.985630556889018    0.012199772276640    0.976894541664805  0.0000
  O2     O2        0.145967422787772    0.485333441955561    0.316633191438788  0.0000
  O3     O3        0.368248555208527    0.509014955639223    0.318198774421921  0.0000
  O2     O2        0.866180016142872    0.498357299843433    0.704096045157168  0.0000
  O2     O2        0.646089138769950    0.525653020566048    0.705164481312326  0.0000
  O2     O2        0.261828211635104    0.264921531578646    0.324942030352098  0.0000
  O3     O3        0.243415290507243    0.747290758008389    0.328567893473769  0.0000
  O2     O2        0.750437556358136    0.275384176898007    0.684012005318166  0.0000
  O2     O2        0.761101375798682    0.749035779229320    0.690568943318466  0.0000
  O2     O2        0.155704750771838    0.236151040755604    0.141493569470666  0.0000
  O3     O3        0.350166092049838    0.770466723416227    0.122268080788051  0.0000
  O2     O2        0.843645296235274    0.255925455863237    0.884633274773757  0.0000
  O2     O2        0.665789847875952    0.764236517124033    0.886705938333036  0.0000
  O3     O3        0.857805296131037    0.734680410343501    0.889278205273068  0.0000
  O2     O2        0.645322344098592    0.259875627868717    0.872621253053731  0.0000
  O2     O2        0.142367301085286    0.739732830956841    0.137754570068228  0.0000
  O2     O2        0.360892495471893    0.275579096512541    0.130977722324751  0.0000
  O2     O2        0.631256097983550    0.506343562318071    0.052352597752116  0.0000
  O3     O3        0.866614198864414    0.460737056885428    0.082057128686247  0.0000
  O2     O2        0.363625067358253    0.519244277139137    0.947966019074781  0.0000
  O2     O2        0.133667593712654    0.487707545054506    0.963955845277214  0.0000
  O2     O2        0.740400792689756    0.271441664013347    0.073575270426243  0.0000
  O3     O3        0.750482965392284    0.712643293424646    0.096024872202488  0.0000
  O2     O2        0.254266645617732    0.278487829057972    0.946913563826031  0.0000
  O2     O2        0.242860904534836    0.727023805395081    0.944732534511476  0.0000
