data_c00169.vasp
_audit_creation_method             Generated by GULP
_audit_author_name                 Salvador R. G. Balestra
_symmetry_space_group_name_H-M     'P 1             '
_symmetry_Int_Tables_number        1

loop_
_symmetry_equiv_pos_site_id
_symmetry_equiv_pos_as_xyz
_cell_length_a                       17.3494
_cell_length_b                        7.6601
_cell_length_c                       10.2033
_cell_angle_alpha                   89.1920
_cell_angle_beta                    89.9145
_cell_angle_gamma                   89.6040

loop_
_atom_site_label
_atom_site_type_symbol
_atom_site_fract_x
_atom_site_fract_y
_atom_site_fract_z
_atom_site_charge
  Ge     Ge        0.052090000000021    0.000000000000000    0.372269999999958  0.0000
  Ge     Ge        0.554415968864337    0.006680193002146    0.603465306777044  0.0000
  Ge     Ge        0.349338886139983    0.688667064501177    0.274934279576569  0.0000
  Ge     Ge        0.157594525155656    0.322710128374177    0.959900127941937  0.0000
  Si     Si        0.456293409986900    0.991385752287741    0.340054807500670  0.0000
  Si     Si        0.953126342905865    0.998505085723070    0.638156006735158  0.0000
  Si     Si        0.557608207494883    0.002027022496890    0.083874844743710  0.0000
  Si     Si        0.942041706136942    0.999414614643107    0.126476730609382  0.0000
  Si     Si        0.443275373694409    0.005458040669049    0.848535409560712  0.0000
  Si     Si        0.055399707141788    0.017086260371587    0.889339203396751  0.0000
  Si     Si        0.161777948450587    0.299416721146401    0.268235179426307  0.0000
  Si     Si        0.845899724241173    0.302079422070618    0.711749326817206  0.0000
  Si     Si        0.665234762173386    0.703044307483063    0.702458363126854  0.0000
  Si     Si        0.842767280732540    0.703562167722082    0.706973469295047  0.0000
  Si     Si        0.668133380524930    0.298548671660049    0.706407240082919  0.0000
  Si     Si        0.168800639149937    0.707344167831522    0.276211470719906  0.0000
  Si     Si        0.338769697675535    0.281039096093083    0.263567926437664  0.0000
  Si     Si        0.663606430179714    0.300983031139545    0.010755170714929  0.0000
  Si     Si        0.840304563127552    0.702115110913811    0.013939801644539  0.0000
  Si     Si        0.338012817730291    0.304218552350977    0.954553254788537  0.0000
  Si     Si        0.167595439243275    0.726856542104249    0.971944956477642  0.0000
  Si     Si        0.345968102974819    0.701809182335793    0.962989044963342  0.0000
  Si     Si        0.662358900314701    0.700646335591764    0.007343851022505  0.0000
  Si     Si        0.841789492825029    0.304378697217968    0.018226391854694  0.0000
  O3     O3        0.104371653878266    0.189281223860844    0.357104064313891  0.0000
  O3     O3        0.414818665373152    0.806863238870727    0.363031444681312  0.0000
  O2     O2        0.901962424706622    0.176302176341010    0.630730932929195  0.0000
  O3     O3        0.608367741429156    0.817356599091242    0.615668375185687  0.0000
  O2     O2        0.896799617962216    0.832017925581687    0.622815208470999  0.0000
  O3     O3        0.614564730568261    0.182484805323722    0.619484274757835  0.0000
  O3     O3        0.111107637550447    0.819388509746625    0.361871013866006  0.0000
  O2     O2        0.388349224929876    0.136591046869206    0.341069893223370  0.0000
  O3     O3        0.017662359093797    0.000920065698817    0.530229827895032  0.0000
  O3     O3        0.520638895257111    0.024377576298390    0.445648117311923  0.0000
  O3     O3        0.972271346888187    0.990151932941472    0.272822717209001  0.0000
  O2     O2        0.495582383528190    0.998406386110439    0.197354181713310  0.0000
  O2     O2        0.993806558785511    0.979464519372741    0.778784166235670  0.0000
  O3     O3        0.474151093144693    0.009344404859404    0.701913837802982  0.0000
  O2     O2        0.611301070012961    0.172585105750543    0.098147500864037  0.0000
  O2     O2        0.890189613276030    0.830240981368118    0.100575714148485  0.0000
  O2     O2        0.390085645047799    0.175090080764035    0.869968588803572  0.0000
  O2     O2        0.123825765275091    0.873135337710880    0.886298574636720  0.0000
  O2     O2        0.395779972649898    0.827570657863232    0.869639615814116  0.0000
  O3     O3        0.093725270625987    0.204473627592161    0.868179051824217  0.0000
  O2     O2        0.609376730622553    0.826276755297645    0.094055943271205  0.0000
  O2     O2        0.892311234724402    0.176446980052525    0.108239381122527  0.0000
  O2     O2        0.516745802609786    0.010391218633191    0.943371990220682  0.0000
  O2     O2        0.015602505533501    0.003169801065498    0.031565556779189  0.0000
  O2     O2        0.144217299527435    0.504967787193121    0.282024129800833  0.0000
  O3     O3        0.370612492326084    0.470213497310152    0.295959668618642  0.0000
  O2     O2        0.866029253663281    0.503252857775660    0.677847534480582  0.0000
  O2     O2        0.647242126372503    0.500529257712194    0.679501802751368  0.0000
  O2     O2        0.250358371726801    0.262864592714823    0.311043016182836  0.0000
  O3     O3        0.255827514707842    0.727078323785531    0.325484583951925  0.0000
  O2     O2        0.757856150855322    0.263628068968407    0.672727642778752  0.0000
  O2     O2        0.754375985349669    0.739865062475032    0.666069678580056  0.0000
  O3     O3        0.150269047064898    0.244920959529761    0.118739435220357  0.0000
  O3     O3        0.359284332048023    0.750764450697609    0.112280546812507  0.0000
  O2     O2        0.857744291034586    0.263375893948049    0.866263781661629  0.0000
  O2     O2        0.651344235834644    0.750672173519047    0.854646725636477  0.0000
  O2     O2        0.853225105665125    0.742458051501738    0.860663048904556  0.0000
  O2     O2        0.653634345010859    0.251152689134928    0.859082988529946  0.0000
  O2     O2        0.164009684515595    0.775093712479634    0.125411342218938  0.0000
  O2     O2        0.341138961443592    0.249695611352760    0.107483635528381  0.0000
  O2     O2        0.637451481238836    0.500670813434284    0.034606777783951  0.0000
  O2     O2        0.865799307966712    0.503233514251276    0.047763678323463  0.0000
  O2     O2        0.370821203059970    0.500945951894703    0.937758322416526  0.0000
  O3     O3        0.130959486231363    0.539379308865945    0.948195553401161  0.0000
  O2     O2        0.752307625878580    0.275880712999865    0.052565392645182  0.0000
  O2     O2        0.750641940882666    0.728087833773400    0.049297952054709  0.0000
  O3     O3        0.251017895733079    0.296296387842479    0.905012220034896  0.0000
  O2     O2        0.256225217700414    0.723321594183788    0.925677857529054  0.0000
