data_c00136.vasp
_audit_creation_method             Generated by GULP
_audit_author_name                 Salvador R. G. Balestra
_symmetry_space_group_name_H-M     'P 1             '
_symmetry_Int_Tables_number        1

loop_
_symmetry_equiv_pos_site_id
_symmetry_equiv_pos_as_xyz
_cell_length_a                       17.4219
_cell_length_b                        7.6706
_cell_length_c                        9.9471
_cell_angle_alpha                   90.4119
_cell_angle_beta                    90.5069
_cell_angle_gamma                   90.4081

loop_
_atom_site_label
_atom_site_type_symbol
_atom_site_fract_x
_atom_site_fract_y
_atom_site_fract_z
_atom_site_charge
  Ge     Ge        0.052090000000021    0.000000000000000    0.372269999999958  0.0000
  Ge     Ge        0.549093866804417    0.002545380177971    0.623578325893063  0.0000
  Ge     Ge        0.554297791943425    0.005959044225462    0.105406822876531  0.0000
  Ge     Ge        0.155088604792782    0.692639123609220    0.980477289896874  0.0000
  Si     Si        0.447255028410527    0.007683850848260    0.359860916849950  0.0000
  Si     Si        0.943914704757141    0.010048182503150    0.623253141792045  0.0000
  Si     Si        0.947156161750470    0.012184079965576    0.109852737440938  0.0000
  Si     Si        0.438876349379637    0.004533039587266    0.863937850069203  0.0000
  Si     Si        0.054083816522161    0.993308586717505    0.864598074667768  0.0000
  Si     Si        0.165113558493551    0.293899537778312    0.298212612840111  0.0000
  Si     Si        0.336402801631317    0.707607567396894    0.295633042922041  0.0000
  Si     Si        0.838458929376717    0.309087687930644    0.727353018090824  0.0000
  Si     Si        0.661665962873021    0.708933180983030    0.732497166799197  0.0000
  Si     Si        0.838000982461227    0.708951590996000    0.728069560684888  0.0000
  Si     Si        0.662162521973959    0.300976989564588    0.732338744724538  0.0000
  Si     Si        0.159871659385470    0.699041648618635    0.299070172543821  0.0000
  Si     Si        0.342462988025707    0.310127514188842    0.296540685245204  0.0000
  Si     Si        0.664983610044011    0.305765563388608    0.043516073241148  0.0000
  Si     Si        0.840951565238265    0.707747381538594    0.044211990852383  0.0000
  Si     Si        0.339264020780666    0.306314955732791    0.981941147685026  0.0000
  Si     Si        0.335016005280267    0.703223066438539    0.977607555000075  0.0000
  Si     Si        0.161124734950208    0.283868545016673    0.986493170348820  0.0000
  Si     Si        0.664262736197950    0.707293555976313    0.043640772679481  0.0000
  Si     Si        0.841712247590322    0.313378120963659    0.043514753907099  0.0000
  O3     O3        0.114235904173440    0.175912611105912    0.393084814413815  0.0000
  O2     O2        0.390525324498388    0.840879761774798    0.378009014274068  0.0000
  O2     O2        0.893635568476216    0.182719029681202    0.645037081170324  0.0000
  O3     O3        0.604254653272041    0.818818299791279    0.643645085841464  0.0000
  O2     O2        0.893294825984994    0.837069788473153    0.647511038580954  0.0000
  O3     O3        0.604850579594351    0.187449776626246    0.643502504212208  0.0000
  O3     O3        0.104974585162652    0.811663596657020    0.392238621057364  0.0000
  O2     O2        0.398040674446142    0.185108787505042    0.381397931347107  0.0000
  O3     O3        0.972808235617083    0.007271829520815    0.472370450745598  0.0000
  O3     O3        0.519322004497551    0.001541767572740    0.457198925030804  0.0000
  O3     O3        0.016430003354960    0.010991429090388    0.210922283143242  0.0000
  O3     O3        0.477259943900668    0.003346063506057    0.208300054453823  0.0000
  O2     O2        0.021972372925251    0.013280731502848    0.713067459025431  0.0000
  O3     O3        0.463702984406579    0.001726793861548    0.709939632349551  0.0000
  O3     O3        0.612012629114183    0.187643737270972    0.133806018282859  0.0000
  O2     O2        0.893971338050441    0.840335801408234    0.128971273612354  0.0000
  O2     O2        0.390308914526736    0.178013979216759    0.894001291028592  0.0000
  O3     O3        0.093587274143509    0.807386813631203    0.879618017513261  0.0000
  O2     O2        0.390628638516010    0.831571537426967    0.898415198838988  0.0000
  O2     O2        0.117168950214257    0.143327966616891    0.894306090854518  0.0000
  O3     O3        0.610771601126277    0.824585359841747    0.133338767187700  0.0000
  O2     O2        0.895076863246127    0.184285656560359    0.127975968032763  0.0000
  O3     O3        0.518853214062999    0.007688074864236    0.943498105054836  0.0000
  O2     O2        0.981207301596867    0.012025394011484    0.960239013452560  0.0000
  O2     O2        0.140390842856263    0.494718265877454    0.313037989284683  0.0000
  O2     O2        0.363903360163511    0.511372121025867    0.328326177244831  0.0000
  O2     O2        0.858820373296535    0.509239377927679    0.690992627408093  0.0000
  O2     O2        0.642876092591188    0.504398216028419    0.714425319737200  0.0000
  O2     O2        0.254671946705257    0.273139177252525    0.337014037454723  0.0000
  O2     O2        0.248710657705941    0.733302726270220    0.341009189162051  0.0000
  O2     O2        0.750145774616076    0.267343726930980    0.688312894013868  0.0000
  O2     O2        0.749636700526575    0.746346805987600    0.688897567414484  0.0000
  O2     O2        0.152435914900158    0.233065166269059    0.143151855970568  0.0000
  O2     O2        0.340610022293682    0.742673646066883    0.136608851225282  0.0000
  O2     O2        0.851133539450565    0.277709105376972    0.885273593013942  0.0000
  O2     O2        0.651893632880825    0.764913191924561    0.888428914993946  0.0000
  O2     O2        0.850604638023514    0.742220510893760    0.886177075249028  0.0000
  O2     O2        0.652694588688971    0.246194285451748    0.888050960226506  0.0000
  O3     O3        0.146269973476392    0.757370415537117    0.145662156517192  0.0000
  O2     O2        0.353887892836664    0.269335706359480    0.138820729791059  0.0000
  O2     O2        0.640983356219163    0.506130569461192    0.062129046394307  0.0000
  O2     O2        0.866924757578511    0.511444065710093    0.079175234345852  0.0000
  O2     O2        0.362672841829548    0.505228518347835    0.948512179605746  0.0000
  O3     O3        0.129701357873180    0.475466980542326    0.962042227693597  0.0000
  O2     O2        0.753869812290346    0.281632137345011    0.085082919684742  0.0000
  O2     O2        0.753039011289091    0.735982809796105    0.085585045970983  0.0000
  O2     O2        0.250283646828190    0.276727382575915    0.945260882718692  0.0000
  O3     O3        0.248405974736126    0.726235590712410    0.929027776368332  0.0000
