data_c00198.vasp
_audit_creation_method             Generated by GULP
_audit_author_name                 Salvador R. G. Balestra
_symmetry_space_group_name_H-M     'P 1             '
_symmetry_Int_Tables_number        1

loop_
_symmetry_equiv_pos_site_id
_symmetry_equiv_pos_as_xyz
_cell_length_a                       16.9421
_cell_length_b                        7.5712
_cell_length_c                       10.5154
_cell_angle_alpha                   89.9476
_cell_angle_beta                    91.0846
_cell_angle_gamma                   90.2796

loop_
_atom_site_label
_atom_site_type_symbol
_atom_site_fract_x
_atom_site_fract_y
_atom_site_fract_z
_atom_site_charge
  Ge     Ge        0.052090000000021    0.000000000000000    0.372269999999958  0.0000
  Ge     Ge        0.556825975419220    0.974866071792094    0.114025821085305  0.0000
  Ge     Ge        0.436563091746473    0.983319490675950    0.873879420730812  0.0000
  Ge     Ge        0.825724813266808    0.714391585893162    0.017706737545442  0.0000
  Si     Si        0.456698671580757    0.981481290444376    0.361767246989912  0.0000
  Si     Si        0.947445428391041    0.995992820601800    0.628975853409132  0.0000
  Si     Si        0.546674058269829    0.974960999317079    0.626957358582073  0.0000
  Si     Si        0.939068042633247    0.994976817030517    0.119038180192504  0.0000
  Si     Si        0.045854547741869    0.985420531552391    0.886091557224981  0.0000
  Si     Si        0.155605072692826    0.309032774244307    0.284958669795764  0.0000
  Si     Si        0.353962763001503    0.673706028896860    0.259768724727367  0.0000
  Si     Si        0.848362299014173    0.305243478009630    0.715223839032366  0.0000
  Si     Si        0.648226746603628    0.662332823202465    0.713907783118230  0.0000
  Si     Si        0.828177542659774    0.711928225688081    0.714959132609384  0.0000
  Si     Si        0.666319424783712    0.257999014673497    0.711628416141758  0.0000
  Si     Si        0.172739579737587    0.716568815282896    0.276464850996537  0.0000
  Si     Si        0.336670723321932    0.265856405479914    0.265901458905358  0.0000
  Si     Si        0.671796538460583    0.253201723268971    0.006402906189770  0.0000
  Si     Si        0.320825053803186    0.259126143990167    0.971265127562722  0.0000
  Si     Si        0.160884892078598    0.704999191624798    0.982147607351973  0.0000
  Si     Si        0.343544417483921    0.659986411861435    0.965884713005139  0.0000
  Si     Si        0.139118506764436    0.303852189815723    0.991152378126154  0.0000
  Si     Si        0.642600805854513    0.646640921671747    0.012224391795466  0.0000
  Si     Si        0.855427408412143    0.315465786234870    0.008936597211093  0.0000
  O3     O3        0.098400317695541    0.203707833501773    0.375890089898814  0.0000
  O2     O2        0.417486295913750    0.788899372599490    0.338217145854302  0.0000
  O2     O2        0.906845470225741    0.189853249678787    0.629892103908912  0.0000
  O2     O2        0.584536051444370    0.779553005421262    0.636803703505481  0.0000
  O2     O2        0.879092181236996    0.846500934693475    0.631153074713290  0.0000
  O2     O2        0.617006666384902    0.120881856706314    0.624644439302284  0.0000
  O3     O3        0.126757570121625    0.845230046952081    0.366649768885907  0.0000
  O2     O2        0.390852605532068    0.134151684382585    0.347996405467544  0.0000
  O3     O3        0.997056402905927    0.971570457476996    0.504698167942877  0.0000
  O2     O2        0.492674104507603    0.987564369325962    0.502197959814247  0.0000
  O3     O3        0.988531177887832    0.972283416819444    0.245724250237413  0.0000
  O3     O3        0.527381476811636    0.010029685278181    0.266442831147528  0.0000
  O2     O2        0.007404519626951    0.973178898043358    0.747617845641036  0.0000
  O3     O3        0.490188420782128    0.017610327643095    0.741541325575131  0.0000
  O3     O3        0.642031382625392    0.099506090843582    0.094536810884707  0.0000
  O3     O3        0.863391296357275    0.868494916643113    0.121254406296003  0.0000
  O3     O3        0.355160560339538    0.121700839068325    0.875184162560898  0.0000
  O2     O2        0.117172395950259    0.845089064067061    0.891650405946388  0.0000
  O3     O3        0.399994211976397    0.768813419128882    0.876179099728591  0.0000
  O2     O2        0.077317299393523    0.184843457919673    0.911216165249333  0.0000
  O3     O3        0.577284584123546    0.754506148345862    0.085127013158653  0.0000
  O2     O2        0.910845645818777    0.197209311463139    0.100151779674294  0.0000
  O1     O1        0.488852610467020    0.046360776233562    0.005885417561170  0.0000
  O2     O2        0.985044197869370    0.927901043264937    0.994117269093706  0.0000
  O2     O2        0.145212201116912    0.516905128944959    0.305731270364684  0.0000
  O2     O2        0.367656180087516    0.466337726131006    0.286364206879764  0.0000
  O2     O2        0.861821429274497    0.514036331581860    0.694362057158287  0.0000
  O2     O2        0.632805730675454    0.455108790049336    0.686967297532237  0.0000
  O2     O2        0.246428397411545    0.252396663781971    0.311048749796397  0.0000
  O2     O2        0.266725355221067    0.730786869158772    0.300975508245677  0.0000
  O2     O2        0.758525998796825    0.253025796414510    0.676955750993665  0.0000
  O2     O2        0.736134895836106    0.715081266471355    0.670466559826982  0.0000
  O2     O2        0.129819694005930    0.257092582900792    0.140111683923510  0.0000
  O2     O2        0.366775262226118    0.716279647193861    0.111065506486797  0.0000
  O2     O2        0.868111157365811    0.258613862221254    0.862177955386442  0.0000
  O2     O2        0.637845487332327    0.702221120803219    0.862977784899828  0.0000
  O3     O3        0.832230860849744    0.773124360671953    0.859834016358451  0.0000
  O2     O2        0.657857762482359    0.199920069625020    0.858368989045696  0.0000
  O2     O2        0.153771111979981    0.764769105022666    0.128970762026980  0.0000
  O2     O2        0.340690676803711    0.209320821188553    0.118495390471088  0.0000
  O2     O2        0.625878323118528    0.437602559149220    0.029322348554131  0.0000
  O3     O3        0.876023890622363    0.516537439891396    0.034282225296570  0.0000
  O2     O2        0.357298396265024    0.452925859787229    0.944371751080520  0.0000
  O2     O2        0.121839232070882    0.510484187441009    0.964910366555092  0.0000
  O2     O2        0.763492636993724    0.286404236212161    0.038080010058865  0.0000
  O3     O3        0.729224904297200    0.694622124504463    0.063498333275923  0.0000
  O2     O2        0.226955129379067    0.260968076972457    0.948507122547607  0.0000
  O2     O2        0.251569730072484    0.703831234640991    0.941198673179991  0.0000
