data_c00185.vasp
_audit_creation_method             Generated by GULP
_audit_author_name                 Salvador R. G. Balestra
_symmetry_space_group_name_H-M     'P 1             '
_symmetry_Int_Tables_number        1

loop_
_symmetry_equiv_pos_site_id
_symmetry_equiv_pos_as_xyz
_cell_length_a                       17.0003
_cell_length_b                        7.5787
_cell_length_c                       10.4539
_cell_angle_alpha                   89.3581
_cell_angle_beta                    89.6611
_cell_angle_gamma                   89.6840

loop_
_atom_site_label
_atom_site_type_symbol
_atom_site_fract_x
_atom_site_fract_y
_atom_site_fract_z
_atom_site_charge
  Ge     Ge        0.052090000000021    0.000000000000000    0.372269999999958  0.0000
  Ge     Ge        0.557016674572602    0.025003609234229    0.098216484876051  0.0000
  Ge     Ge        0.943893201806941    0.003134110945352    0.119241259153684  0.0000
  Ge     Ge        0.339418583472203    0.741865568687299    0.270955753356484  0.0000
  Si     Si        0.458932097765056    0.018074619354920    0.359393029060115  0.0000
  Si     Si        0.955676944240551    0.011304600440474    0.636434658510314  0.0000
  Si     Si        0.554907400916228    0.035829857510707    0.615654977683137  0.0000
  Si     Si        0.446240523241612    0.024211449954307    0.856641349433972  0.0000
  Si     Si        0.060419051399560    0.021112827205890    0.885242999775824  0.0000
  Si     Si        0.176522067790419    0.281827748546732    0.264496460067058  0.0000
  Si     Si        0.835146248447531    0.295235204472839    0.712120146212575  0.0000
  Si     Si        0.673170254017380    0.747049998701351    0.711410590796008  0.0000
  Si     Si        0.853216326821946    0.699659679049057    0.711444929354339  0.0000
  Si     Si        0.654256891154292    0.342035557622792    0.711458724345721  0.0000
  Si     Si        0.154722406264972    0.690731923787820    0.273659263519391  0.0000
  Si     Si        0.357657846489067    0.326857628620281    0.262879846011421  0.0000
  Si     Si        0.647510583366865    0.351560448007166    0.008292142489743  0.0000
  Si     Si        0.856767126916366    0.681363123773788    0.009707862796415  0.0000
  Si     Si        0.356092919394817    0.341281634356177    0.965085661422418  0.0000
  Si     Si        0.154262839541274    0.701214717190741    0.976550100629151  0.0000
  Si     Si        0.337641789715317    0.744686400492244    0.967725144739722  0.0000
  Si     Si        0.174012391410697    0.300806713391127    0.967123764689027  0.0000
  Si     Si        0.676782802923433    0.746780477465326    0.009472905172778  0.0000
  Si     Si        0.828444954973676    0.286177155697711    0.009674617621944  0.0000
  O3     O3        0.128221347518604    0.147330548437456    0.349232945664562  0.0000
  O3     O3        0.391033539233899    0.873485177403395    0.372998888670918  0.0000
  O2     O2        0.886758599173990    0.159808873599978    0.629027826758134  0.0000
  O2     O2        0.621194131418758    0.884363177885962    0.630255185882040  0.0000
  O2     O2        0.914582659343382    0.818632485310647    0.630790417196913  0.0000
  O2     O2        0.595023846963754    0.227466490290809    0.627327333449942  0.0000
  O3     O3        0.090276155952176    0.788948069466631    0.357498931903775  0.0000
  O2     O2        0.418838832735884    0.210461458209452    0.343727553839900  0.0000
  O3     O3        0.017264656861457    0.032545328261664    0.524236804239838  0.0000
  O2     O2        0.518506573504389    0.020668658925180    0.476296397840168  0.0000
  O1     O1        0.974933453685474    0.030197952308302    0.271560779728870  0.0000
  O3     O3        0.507247648259231    0.968054327354442    0.233274601055644  0.0000
  O2     O2        0.003794291143281    0.036706628430241    0.766034309021716  0.0000
  O2     O2        0.483986764167180    0.012814025564542    0.716502797442705  0.0000
  O3     O3        0.586396692605797    0.243275195607078    0.093213037625193  0.0000
  O3     O3        0.918118159621560    0.785898764657346    0.092751806474697  0.0000
  O2     O2        0.413932104874531    0.223643831037825    0.878644690649052  0.0000
  O2     O2        0.097019030073719    0.823137355814869    0.891437643732909  0.0000
  O2     O2        0.375031989620635    0.883297466181131    0.867631166856794  0.0000
  O2     O2        0.130596787089353    0.165324157252650    0.874654518782513  0.0000
  O3     O3        0.640470332830037    0.893100731363544    0.097306123773339  0.0000
  O3     O3        0.862161699186407    0.136125149132050    0.099127310517939  0.0000
  O3     O3        0.507790381206169    0.966653694426023    0.962686819174771  0.0000
  O3     O3        0.015393811166041    0.070390856000194    0.013886959419981  0.0000
  O2     O2        0.149397519884567    0.481021997123989    0.295209845639542  0.0000
  O3     O3        0.369799882062329    0.527172584216330    0.296764987732706  0.0000
  O2     O2        0.866857695269458    0.492846648931824    0.683466967344333  0.0000
  O2     O2        0.641445449315608    0.550079387562079    0.684576185035368  0.0000
  O2     O2        0.269109849604348    0.263092598279699    0.294676027587176  0.0000
  O3     O3        0.240966096686394    0.758944533921485    0.307113938987557  0.0000
  O2     O2        0.743387405581607    0.286560687315753    0.674415756145222  0.0000
  O2     O2        0.764888119145896    0.756365863439360    0.670620992223511  0.0000
  O2     O2        0.162510450003733    0.241995430017978    0.114866113048660  0.0000
  O3     O3        0.355391347879809    0.799555351572055    0.112282799766872  0.0000
  O2     O2        0.842252350755984    0.239843596615556    0.860640108365793  0.0000
  O2     O2        0.667249038814948    0.798003675816887    0.859732702668805  0.0000
  O2     O2        0.868576534076001    0.735291780257296    0.860670617306032  0.0000
  O2     O2        0.634791473974619    0.299507161587195    0.859687137524710  0.0000
  O2     O2        0.135975121219017    0.740452122724677    0.125161873762384  0.0000
  O2     O2        0.374969919960991    0.292137723932269    0.112403006430128  0.0000
  O2     O2        0.633371393631750    0.558687697877264    0.030956648768925  0.0000
  O2     O2        0.871128004433283    0.473324288797907    0.033593002643215  0.0000
  O2     O2        0.372279096926832    0.548335321446815    0.941211036561406  0.0000
  O2     O2        0.138323364457426    0.496948916591541    0.944902649314838  0.0000
  O2     O2        0.736623768369271    0.301501660990979    0.043695249985365  0.0000
  O2     O2        0.767765308750780    0.730205220000944    0.048227657196561  0.0000
  O2     O2        0.266136885969407    0.298187937215776    0.931969730728605  0.0000
  O2     O2        0.244332844930634    0.746380971677903    0.946033404868230  0.0000
