data_c00144.vasp
_audit_creation_method             Generated by GULP
_audit_author_name                 Salvador R. G. Balestra
_symmetry_space_group_name_H-M     'P 1             '
_symmetry_Int_Tables_number        1

loop_
_symmetry_equiv_pos_site_id
_symmetry_equiv_pos_as_xyz
_cell_length_a                       17.4564
_cell_length_b                        7.6726
_cell_length_c                        9.9562
_cell_angle_alpha                   90.0066
_cell_angle_beta                    89.6815
_cell_angle_gamma                   90.1040

loop_
_atom_site_label
_atom_site_type_symbol
_atom_site_fract_x
_atom_site_fract_y
_atom_site_fract_z
_atom_site_charge
  Ge     Ge        0.052090000000021    0.000000000000000    0.372269999999958  0.0000
  Ge     Ge        0.553635000608591    0.993889478355347    0.643007872958668  0.0000
  Ge     Ge        0.936610245779798    0.003756814918026    0.114937875241617  0.0000
  Ge     Ge        0.334961887667745    0.308711157580106    0.963607987917207  0.0000
  Si     Si        0.445714828695702    0.002133373462382    0.388270284106815  0.0000
  Si     Si        0.947766732369886    0.999765830821723    0.630847226029473  0.0000
  Si     Si        0.547876649292566    0.003275855355935    0.137405209459545  0.0000
  Si     Si        0.440660760549883    0.006594824497334    0.894291277100713  0.0000
  Si     Si        0.050729840831376    0.002303669310482    0.873937432904786  0.0000
  Si     Si        0.164530553280706    0.298245736632721    0.298539174117517  0.0000
  Si     Si        0.338930292130926    0.702446893184517    0.287238884642368  0.0000
  Si     Si        0.840975379824368    0.297542456178583    0.738644548562438  0.0000
  Si     Si        0.664893660250378    0.697848330831910    0.713101865011851  0.0000
  Si     Si        0.840822887912375    0.700586770501627    0.735672885228455  0.0000
  Si     Si        0.664402274469306    0.295165955173617    0.717958839327798  0.0000
  Si     Si        0.162239820865108    0.700777283294629    0.301615556986652  0.0000
  Si     Si        0.340718570970417    0.301754753956546    0.286300539582013  0.0000
  Si     Si        0.651981481091765    0.301620659402350    0.029811237807613  0.0000
  Si     Si        0.826822812866062    0.703722659697719    0.048880637356580  0.0000
  Si     Si        0.154246163309806    0.704963279687964    0.989575921689792  0.0000
  Si     Si        0.331696755583653    0.711007725694367    0.971622306429988  0.0000
  Si     Si        0.155354665525101    0.301831605619544    0.984013830641996  0.0000
  Si     Si        0.650701482039567    0.702657918458224    0.025453161942926  0.0000
  Si     Si        0.828591545473057    0.305732136972935    0.051373515366102  0.0000
  O3     O3        0.111275294964176    0.179855200056968    0.389763626537154  0.0000
  O2     O2        0.393750732334841    0.830815560710684    0.368227970485322  0.0000
  O2     O2        0.897600817183050    0.172390921133995    0.657606174906266  0.0000
  O3     O3        0.612961694403543    0.815628456310076    0.619884952666150  0.0000
  O2     O2        0.898429690608004    0.824683218464168    0.655045850455622  0.0000
  O3     O3        0.611806106071202    0.175620572969986    0.627165291202667  0.0000
  O3     O3        0.109009284301884    0.817237664022216    0.394217520783715  0.0000
  O2     O2        0.396575807936958    0.177332880974458    0.369517353639083  0.0000
  O3     O3        0.974032944904862    0.002314886461076    0.477804060485498  0.0000
  O3     O3        0.476968096648346    0.000050819683055    0.537316425569573  0.0000
  O1     O1        0.013684170123640    0.001470597363499    0.215226376550791  0.0000
  O2     O2        0.520375420167271    0.998631028611653    0.291517030319914  0.0000
  O2     O2        0.026343681426601    0.000337814656155    0.717102845275191  0.0000
  O3     O3        0.511639467973972    0.978070016349761    0.799037595721475  0.0000
  O2     O2        0.598889357730056    0.176318876591800    0.118046634590244  0.0000
  O3     O3        0.876440606714544    0.826719544288001    0.140938562807126  0.0000
  O3     O3        0.394891022574731    0.183603614689020    0.866258851375538  0.0000
  O2     O2        0.100993924229907    0.830713889190845    0.903197168125892  0.0000
  O2     O2        0.377796508942149    0.852192391304675    0.885043511369211  0.0000
  O2     O2        0.096841343850586    0.179769597964063    0.904178065124983  0.0000
  O2     O2        0.595193705030388    0.827415726643704    0.109077031205934  0.0000
  O3     O3        0.879857192639488    0.185845250978152    0.142942823324038  0.0000
  O2     O2        0.473002371545826    0.013378682099424    0.046140198306563  0.0000
  O3     O3        0.971821933635321    0.998165833918045    0.953170105014585  0.0000
  O2     O2        0.142491211240201    0.498747665977063    0.325013735196483  0.0000
  O2     O2        0.362761926051849    0.502986774036288    0.316909530160712  0.0000
  O2     O2        0.863533204922633    0.498848303036676    0.710152506015986  0.0000
  O2     O2        0.645308993344821    0.496010128856692    0.687581428634036  0.0000
  O2     O2        0.253427974574407    0.266644393776102    0.333616274807544  0.0000
  O2     O2        0.251524805668468    0.735555551137918    0.333287916874990  0.0000
  O2     O2        0.754273052029638    0.260845210325368    0.690420477402041  0.0000
  O2     O2        0.754611592142070    0.732834723019228    0.683657714786803  0.0000
  O2     O2        0.151922218138072    0.251709036309347    0.141420129726798  0.0000
  O2     O2        0.346977252681930    0.739211031782981    0.129381724946167  0.0000
  O2     O2        0.847163972820342    0.256705907596911    0.896456890737457  0.0000
  O2     O2        0.645920185776852    0.748273582652184    0.867954120519870  0.0000
  O2     O2        0.844967657178911    0.746571216471331    0.892888656436061  0.0000
  O2     O2        0.644579921959875    0.249801868855974    0.873505146774624  0.0000
  O2     O2        0.145065050238030    0.752770012376492    0.146467527177691  0.0000
  O3     O3        0.348796739117712    0.260821837458346    0.130344709682507  0.0000
  O2     O2        0.625746198609565    0.501928403574647    0.050479869765766  0.0000
  O2     O2        0.849863986246158    0.505500218792665    0.080866825225839  0.0000
  O3     O3        0.358633822146266    0.521547336748223    0.928173009469509  0.0000
  O2     O2        0.130385168963624    0.503935484705356    0.965009979143101  0.0000
  O2     O2        0.738605975113295    0.275810352401491    0.079119639562364  0.0000
  O2     O2        0.736786876038554    0.732393355870861    0.077136341736926  0.0000
  O3     O3        0.239763743477152    0.273495384582588    0.926623348782957  0.0000
  O2     O2        0.241547336345004    0.733452757294296    0.942483701552042  0.0000
