data_c00114.vasp
_audit_creation_method             Generated by GULP
_audit_author_name                 Salvador R. G. Balestra
_symmetry_space_group_name_H-M     'P 1             '
_symmetry_Int_Tables_number        1

loop_
_symmetry_equiv_pos_site_id
_symmetry_equiv_pos_as_xyz
_cell_length_a                       17.3153
_cell_length_b                        7.6446
_cell_length_c                       10.2674
_cell_angle_alpha                   89.1222
_cell_angle_beta                    90.5334
_cell_angle_gamma                   90.0534

loop_
_atom_site_label
_atom_site_type_symbol
_atom_site_fract_x
_atom_site_fract_y
_atom_site_fract_z
_atom_site_charge
  Ge     Ge        0.052090000000021    0.000000000000000    0.372269999999958  0.0000
  Ge     Ge        0.950130880055339    0.010081321714275    0.640841703093287  0.0000
  Ge     Ge        0.350540993973809    0.687979071140129    0.274210321561725  0.0000
  Ge     Ge        0.655616896105983    0.675747018535986    0.025021780697964  0.0000
  Si     Si        0.456317272230132    0.993343137543889    0.357605538965887  0.0000
  Si     Si        0.550606031747017    0.002641503870958    0.620185444881090  0.0000
  Si     Si        0.557910944134369    0.986496937722250    0.107141640591442  0.0000
  Si     Si        0.944654227492387    0.998260406812965    0.126293587025632  0.0000
  Si     Si        0.444346406102100    0.999805207041866    0.865173162300436  0.0000
  Si     Si        0.058115777578000    0.002923500344340    0.897685017909284  0.0000
  Si     Si        0.161741664720087    0.302653574933385    0.271208299622754  0.0000
  Si     Si        0.841711635923091    0.314997489916421    0.706013171545347  0.0000
  Si     Si        0.652774762477992    0.695362259787550    0.714201797900489  0.0000
  Si     Si        0.830545303325659    0.718694747262670    0.711642901443011  0.0000
  Si     Si        0.663888436315137    0.292480989545706    0.711233883490336  0.0000
  Si     Si        0.170262981960256    0.708612887073550    0.273096464504739  0.0000
  Si     Si        0.339656518757677    0.276808433966137    0.270729850728043  0.0000
  Si     Si        0.669012632323316    0.273842582275960    0.016432107798919  0.0000
  Si     Si        0.837154032438701    0.705221228201919    0.015990957918306  0.0000
  Si     Si        0.337784337099046    0.290696652982128    0.965853831717926  0.0000
  Si     Si        0.169487491661319    0.708865705191513    0.967685867789216  0.0000
  Si     Si        0.347377804422071    0.691164141150693    0.963395668879175  0.0000
  Si     Si        0.159376658038896    0.310483489291234    0.968272114741109  0.0000
  Si     Si        0.847524980699151    0.305029934821962    0.008399245909982  0.0000
  O3     O3        0.103116383257389    0.192617563108351    0.355839802635459  0.0000
  O3     O3        0.418493726702314    0.803080243828866    0.360654818258768  0.0000
  O3     O3        0.899738633194695    0.205369489692351    0.621167707322480  0.0000
  O2     O2        0.594701791404256    0.817183342922459    0.630189623269896  0.0000
  O3     O3        0.881926907443922    0.845140459371863    0.625892933039045  0.0000
  O2     O2        0.611356474249542    0.161360610426585    0.629479779220493  0.0000
  O3     O3        0.112243808758208    0.824045700949897    0.352599542808688  0.0000
  O2     O2        0.386620925724012    0.133401730004509    0.354252765767746  0.0000
  O1     O1        0.020685220701781    0.992804551950785    0.529520521875606  0.0000
  O2     O2        0.510568977351677    0.020818064474946    0.480985719923790  0.0000
  O3     O3        0.970167298323515    0.994178626415620    0.275413317087885  0.0000
  O2     O2        0.508293135590798    0.028468116594323    0.231753948212455  0.0000
  O3     O3        0.991661976783810    0.990489527037883    0.793334920941031  0.0000
  O2     O2        0.483962498616314    0.017038099725730    0.726353723269724  0.0000
  O2     O2        0.630682663387470    0.118375153918842    0.099115492967097  0.0000
  O2     O2        0.889199980831092    0.833730473961718    0.100788906648537  0.0000
  O2     O2        0.383617829518328    0.158206633635878    0.876055906060124  0.0000
  O2     O2        0.119242141809565    0.844664612424812    0.882143365304723  0.0000
  O2     O2        0.400970323976110    0.812963434220599    0.872714867744476  0.0000
  O2     O2        0.103531757469975    0.188130259369103    0.882933163076034  0.0000
  O3     O3        0.592056723592669    0.792829678214858    0.117095672388148  0.0000
  O2     O2        0.902429483254331    0.182116435234489    0.095330213802553  0.0000
  O2     O2        0.507784035315058    0.016316313985630    0.977399229448606  0.0000
  O2     O2        0.021904748103082    0.984092610307952    0.041510230553733  0.0000
  O2     O2        0.147361302339321    0.506483496154695    0.295848653066230  0.0000
  O3     O3        0.368678667847640    0.469243299122597    0.302038546236377  0.0000
  O2     O2        0.857742001470311    0.520416899240871    0.686915754407809  0.0000
  O2     O2        0.635059610254161    0.491321288549188    0.686860182495550  0.0000
  O2     O2        0.250003525580042    0.255675221384667    0.309115179259605  0.0000
  O3     O3        0.257780889138856    0.738455129672047    0.319714651422128  0.0000
  O2     O2        0.752747864024065    0.273253430812001    0.667942706913238  0.0000
  O2     O2        0.740496759922049    0.738933932274754    0.673198452310105  0.0000
  O2     O2        0.147932633598726    0.259063593682436    0.119347580144852  0.0000
  O3     O3        0.362732289875864    0.741720517240652    0.111582042133782  0.0000
  O2     O2        0.857164366078298    0.257749650608873    0.857026094051283  0.0000
  O3     O3        0.640657423309414    0.736244876751079    0.864459820235334  0.0000
  O2     O2        0.839842126735247    0.764008011239976    0.864523310446931  0.0000
  O2     O2        0.657057862685174    0.242138068683612    0.862909593296389  0.0000
  O2     O2        0.165197791876986    0.756100779063691    0.119406980396824  0.0000
  O2     O2        0.349394974804937    0.239577527498049    0.117158911562987  0.0000
  O3     O3        0.633195567811048    0.458774444499051    0.052053715261497  0.0000
  O2     O2        0.869859473852864    0.507200451529457    0.032299113861805  0.0000
  O2     O2        0.368837500997614    0.487892960101105    0.941288896435659  0.0000
  O2     O2        0.137360167759350    0.513308938825756    0.942440414290364  0.0000
  O2     O2        0.759664612095341    0.274313495944188    0.051624453492890  0.0000
  O3     O3        0.750578926660043    0.713465881421506    0.066891324460585  0.0000
  O2     O2        0.247671011864957    0.278720730038218    0.927419750629114  0.0000
  O2     O2        0.258116096743768    0.722356874146725    0.923585103533383  0.0000
