data_c00164.vasp
_audit_creation_method             Generated by GULP
_audit_author_name                 Salvador R. G. Balestra
_symmetry_space_group_name_H-M     'P 1             '
_symmetry_Int_Tables_number        1

loop_
_symmetry_equiv_pos_site_id
_symmetry_equiv_pos_as_xyz
_cell_length_a                       17.3249
_cell_length_b                        7.6622
_cell_length_c                       10.1988
_cell_angle_alpha                   89.8287
_cell_angle_beta                    89.4253
_cell_angle_gamma                   90.0420

loop_
_atom_site_label
_atom_site_type_symbol
_atom_site_fract_x
_atom_site_fract_y
_atom_site_fract_z
_atom_site_charge
  Ge     Ge        0.052090000000021    0.000000000000000    0.372269999999958  0.0000
  Ge     Ge        0.558451200757764    0.019397073002597    0.603717755232279  0.0000
  Ge     Ge        0.340271842902316    0.720775480095561    0.274600150351944  0.0000
  Ge     Ge        0.658165472215593    0.325349289832001    0.015144158372742  0.0000
  Si     Si        0.455736642246214    0.009094640384280    0.345734359863221  0.0000
  Si     Si        0.956809965488981    0.013284904969940    0.642178281783229  0.0000
  Si     Si        0.554264484908294    0.017497473950357    0.089533828889381  0.0000
  Si     Si        0.943881277744988    0.015546236802745    0.127762360802186  0.0000
  Si     Si        0.444438314293736    0.017199067518416    0.848718218755840  0.0000
  Si     Si        0.060343712132131    0.007660143619150    0.894186387792730  0.0000
  Si     Si        0.171045824534739    0.290632475496002    0.269451905652310  0.0000
  Si     Si        0.843963613613393    0.310325291339228    0.712988884798710  0.0000
  Si     Si        0.672062971673881    0.724885613771497    0.705283475216335  0.0000
  Si     Si        0.849629337353666    0.710513214209823    0.709973015552596  0.0000
  Si     Si        0.666924398607205    0.317545709334740    0.705974139345169  0.0000
  Si     Si        0.159991507948320    0.695243191069718    0.275906993769365  0.0000
  Si     Si        0.349526515611656    0.311145786135666    0.265669806611892  0.0000
  Si     Si        0.845362651346875    0.711178529005128    0.016334949835987  0.0000
  Si     Si        0.347438504632271    0.322742164763936    0.959258376186592  0.0000
  Si     Si        0.161902734174352    0.699892159363167    0.968152932142561  0.0000
  Si     Si        0.339631521679022    0.722845323184401    0.961094236794592  0.0000
  Si     Si        0.168947278353961    0.302408690838736    0.964554627789564  0.0000
  Si     Si        0.666735589170207    0.731685667767391    0.008475730518174  0.0000
  Si     Si        0.839202053721638    0.314778858096085    0.021994987222363  0.0000
  O3     O3        0.120265699406000    0.161881842160151    0.354551457955090  0.0000
  O3     O3        0.397689343653388    0.849342021855050    0.370588123052518  0.0000
  O2     O2        0.899407366822451    0.179301600874350    0.634558771749848  0.0000
  O3     O3        0.618583807514031    0.840807825927692    0.615660665759570  0.0000
  O2     O2        0.906666866248276    0.835580558950038    0.627820154346418  0.0000
  O3     O3        0.611299084988410    0.208894184495273    0.614653024925202  0.0000
  O3     O3        0.095434425774968    0.799270608038385    0.354293290609587  0.0000
  O2     O2        0.405328069880546    0.186440380472532    0.347657390563975  0.0000
  O3     O3        0.020622528507489    0.021218286797914    0.531630006354497  0.0000
  O3     O3        0.523997160037181    0.017841640959472    0.446361236688131  0.0000
  O3     O3        0.972015489680581    0.020062138200778    0.275260576309133  0.0000
  O2     O2        0.492212510847544    0.977918490539984    0.201378076386673  0.0000
  O2     O2        0.998046541501452    0.016035031745309    0.782053323975181  0.0000
  O3     O3        0.478010457616928    0.011327170238587    0.703552863551367  0.0000
  O3     O3        0.593537533187729    0.204863354375382    0.107025296185455  0.0000
  O2     O2        0.896119575089682    0.838429962282415    0.103876677829226  0.0000
  O2     O2        0.400664260333956    0.201569458561962    0.868639950017583  0.0000
  O2     O2        0.106388793133277    0.824881577426843    0.885118520869488  0.0000
  O2     O2        0.386532905613123    0.854562297583936    0.867735153684835  0.0000
  O2     O2        0.119725899191424    0.169397217112166    0.877523504151642  0.0000
  O2     O2        0.621873714874071    0.872672399419067    0.095602961320284  0.0000
  O2     O2        0.891364874767418    0.184562914049239    0.104578736324487  0.0000
  O2     O2        0.515391798655189    0.003219714138998    0.947603577797197  0.0000
  O2     O2        0.019322352965891    0.021826641787863    0.035402059049824  0.0000
  O2     O2        0.146666333283447    0.489389540636745    0.298273097525763  0.0000
  O3     O3        0.368748419064150    0.507953843873434    0.299583497380465  0.0000
  O2     O2        0.871056688779510    0.508694601650146    0.683086578408187  0.0000
  O2     O2        0.648218075641626    0.522733222713878    0.692964901833096  0.0000
  O2     O2        0.261054235178408    0.266198954124856    0.303727373108535  0.0000
  O3     O3        0.245122134401038    0.746838721329819    0.321620963719027  0.0000
  O2     O2        0.756330781400901    0.283384614465210    0.665547380642275  0.0000
  O2     O2        0.762078249508455    0.747547315288024    0.665640120058303  0.0000
  O2     O2        0.158743535480181    0.248492755544474    0.116193330886774  0.0000
  O3     O3        0.350380910555621    0.774810085164888    0.110808618907906  0.0000
  O2     O2        0.846068983961669    0.270838136081944    0.867914505262529  0.0000
  O2     O2        0.660454891075456    0.785275485034736    0.855641346096534  0.0000
  O2     O2        0.858952559186149    0.754575609194226    0.863474811469719  0.0000
  O3     O3        0.652012496398863    0.257068562417834    0.854648032026394  0.0000
  O2     O2        0.153320091581062    0.742785950990120    0.121689991914331  0.0000
  O2     O2        0.362216325380217    0.275439822439602    0.110620087659471  0.0000
  O3     O3        0.632212577697222    0.541181392628002    0.031687535156196  0.0000
  O2     O2        0.869466452749862    0.511989973812946    0.046827953333871  0.0000
  O2     O2        0.369642731501735    0.525160319085792    0.935317671869067  0.0000
  O2     O2        0.138765118039275    0.499234841667942    0.940213569682074  0.0000
  O3     O3        0.751479844452373    0.296660561271036    0.068258472709597  0.0000
  O2     O2        0.755654275477496    0.735194757305961    0.052814057175443  0.0000
  O2     O2        0.258494365502283    0.289345420298471    0.922802234580009  0.0000
  O2     O2        0.249723630808411    0.734030441264661    0.923028753404291  0.0000
