data_c00125.vasp
_audit_creation_method             Generated by GULP
_audit_author_name                 Salvador R. G. Balestra
_symmetry_space_group_name_H-M     'P 1             '
_symmetry_Int_Tables_number        1

loop_
_symmetry_equiv_pos_site_id
_symmetry_equiv_pos_as_xyz
_cell_length_a                       17.2147
_cell_length_b                        7.6166
_cell_length_c                       10.3091
_cell_angle_alpha                   89.8988
_cell_angle_beta                    91.1352
_cell_angle_gamma                   89.5468

loop_
_atom_site_label
_atom_site_type_symbol
_atom_site_fract_x
_atom_site_fract_y
_atom_site_fract_z
_atom_site_charge
  Ge     Ge        0.052090000000021    0.000000000000000    0.372269999999958  0.0000
  Ge     Ge        0.940675204068792    0.991796185114146    0.630178387348766  0.0000
  Ge     Ge        0.848259158128716    0.671108452551982    0.034818909533617  0.0000
  Ge     Ge        0.825943444068288    0.257676647788529    0.028774365861201  0.0000
  Si     Si        0.452298457030328    0.004257757204149    0.372406322623585  0.0000
  Si     Si        0.541677997763856    0.013032316856144    0.642497674718465  0.0000
  Si     Si        0.551930906141030    0.005000198078958    0.120224022865413  0.0000
  Si     Si        0.944731574245006    0.982340070670206    0.118527681465722  0.0000
  Si     Si        0.434122125818084    0.999356911192970    0.884825743653742  0.0000
  Si     Si        0.049515983238740    0.002215146330926    0.881583530338564  0.0000
  Si     Si        0.168612777470733    0.287934249038323    0.295822177689730  0.0000
  Si     Si        0.338225887382594    0.714236144439669    0.283903691244676  0.0000
  Si     Si        0.820850154241781    0.277208879429363    0.725120736605088  0.0000
  Si     Si        0.659571345300391    0.721230328065594    0.732630393297769  0.0000
  Si     Si        0.836741476651204    0.688472455301531    0.731706164582023  0.0000
  Si     Si        0.644370632820603    0.321403464709870    0.727483413915904  0.0000
  Si     Si        0.159024618321163    0.693398890817551    0.295107925411799  0.0000
  Si     Si        0.347549815393540    0.310987950765139    0.285662000828617  0.0000
  Si     Si        0.645715326181342    0.321011655046638    0.033106797202933  0.0000
  Si     Si        0.338695333195734    0.311432031902935    0.983543365319208  0.0000
  Si     Si        0.148138316196609    0.692857473515181    0.994294274504087  0.0000
  Si     Si        0.327729068351715    0.711233156335343    0.981500531697384  0.0000
  Si     Si        0.159174181325543    0.289515749534544    0.994402087842904  0.0000
  Si     Si        0.665641854095493    0.714835582128509    0.037915456276129  0.0000
  O3     O3        0.119680357522605    0.167028669539349    0.387954884627865  0.0000
  O2     O2        0.390820125658977    0.846014421244326    0.367070145600000  0.0000
  O3     O3        0.874326970321644    0.163046791611089    0.633661850095312  0.0000
  O2     O2        0.607409647179095    0.863214059079465    0.656828490612431  0.0000
  O3     O3        0.895131641088505    0.791074402218384    0.641394826199830  0.0000
  O2     O2        0.581356436055488    0.203908893779830    0.651649096183661  0.0000
  O3     O3        0.103943679689198    0.804590374011448    0.385044265521147  0.0000
  O2     O2        0.407018556341331    0.190233818797346    0.367712195267614  0.0000
  O1     O1        0.979624770810627    0.004993466627611    0.479372828848341  0.0000
  O2     O2        0.501089420013606    0.991805181157057    0.504097356420074  0.0000
  O3     O3        0.009733405000324    0.029227098016403    0.221203072338231  0.0000
  O2     O2        0.511436107533881    0.986072948965733    0.256235466757419  0.0000
  O3     O3        0.019545223744953    0.011083862607673    0.735323828895805  0.0000
  O2     O2        0.476332435233039    0.990658233219586    0.749281034504546  0.0000
  O2     O2        0.584050469212090    0.202271042867993    0.107265949045588  0.0000
  O3     O3        0.916319027114953    0.782801303610885    0.127532842031043  0.0000
  O2     O2        0.392393906773933    0.188883018256644    0.896112870810890  0.0000
  O2     O2        0.089639696826002    0.812087539181573    0.908932173401896  0.0000
  O2     O2        0.370187849230278    0.845982097289789    0.887807882557514  0.0000
  O2     O2        0.110675546001338    0.158488481035672    0.904391537843348  0.0000
  O2     O2        0.621840505797337    0.863881590015329    0.118419394152955  0.0000
  O3     O3        0.867913753177805    0.102255771307030    0.128187050827780  0.0000
  O2     O2        0.493912211274096    0.962012587982642    0.002011374881204  0.0000
  O2     O2        0.976453465431475    0.028422718775939    0.974363350516731  0.0000
  O2     O2        0.143873447326288    0.488997235576369    0.320056123578742  0.0000
  O2     O2        0.365455259937802    0.514755110106984    0.313703185273124  0.0000
  O2     O2        0.850353668232481    0.478443599232800    0.729353248330846  0.0000
  O2     O2        0.625957795298744    0.527160658094869    0.703036439798026  0.0000
  O2     O2        0.260295870085047    0.265054231484825    0.326285217552360  0.0000
  O2     O2        0.249001999545005    0.739560523427273    0.324092727120212  0.0000
  O2     O2        0.730552517627556    0.275619467026711    0.677406880887783  0.0000
  O2     O2        0.748125955629424    0.733186728949434    0.685014292552447  0.0000
  O2     O2        0.151618445158408    0.237337319109090    0.145149730809355  0.0000
  O2     O2        0.345912735221923    0.757332901820841    0.131532648009537  0.0000
  O3     O3        0.826974189428111    0.195331015218501    0.868008988276193  0.0000
  O2     O2        0.660592988501547    0.762125129801853    0.885388978416965  0.0000
  O3     O3        0.852564567338185    0.751486471939023    0.877739158365750  0.0000
  O2     O2        0.640678178465421    0.277994595579790    0.879834923661568  0.0000
  O2     O2        0.137816636060884    0.742263385104432    0.145051387917946  0.0000
  O2     O2        0.358165954053586    0.269170532793686    0.133805719846990  0.0000
  O2     O2        0.625444143555383    0.525324107177889    0.059790852970533  0.0000
  O1     O1        0.871543935877173    0.455296817621855    0.047643857953202  0.0000
  O2     O2        0.356984510851397    0.513875294752574    0.951327016927134  0.0000
  O2     O2        0.127860799950448    0.488345030901410    0.971010165988885  0.0000
  O3     O3        0.732036612684025    0.280883713812036    0.082102938242293  0.0000
  O3     O3        0.754010616777340    0.706203270669215    0.085626409423508  0.0000
  O2     O2        0.248491259171286    0.273839004549113    0.952947099570534  0.0000
  O2     O2        0.235980174514194    0.728525492353623    0.952291568635215  0.0000
