data_c00172.vasp
_audit_creation_method             Generated by GULP
_audit_author_name                 Salvador R. G. Balestra
_symmetry_space_group_name_H-M     'P 1             '
_symmetry_Int_Tables_number        1

loop_
_symmetry_equiv_pos_site_id
_symmetry_equiv_pos_as_xyz
_cell_length_a                       17.2493
_cell_length_b                        7.6626
_cell_length_c                       10.1720
_cell_angle_alpha                   90.0827
_cell_angle_beta                    90.2514
_cell_angle_gamma                   90.4811

loop_
_atom_site_label
_atom_site_type_symbol
_atom_site_fract_x
_atom_site_fract_y
_atom_site_fract_z
_atom_site_charge
  Ge     Ge        0.052090000000021    0.000000000000000    0.372269999999958  0.0000
  Ge     Ge        0.550149288772547    0.987197771907279    0.621042668316278  0.0000
  Ge     Ge        0.666086799587899    0.273813655514320    0.027713790926909  0.0000
  Ge     Ge        0.829608976974672    0.720678821048417    0.037693268772874  0.0000
  Si     Si        0.449086614726047    0.996965111939940    0.357056844153354  0.0000
  Si     Si        0.947897570494517    0.008905363268849    0.630631803971848  0.0000
  Si     Si        0.550213751814737    0.985306644927763    0.102961376204173  0.0000
  Si     Si        0.944405559679640    0.010442442801646    0.114362364874881  0.0000
  Si     Si        0.437833955589870    0.002750588308576    0.865485253844711  0.0000
  Si     Si        0.053514503673459    0.991290271417883    0.875813096006604  0.0000
  Si     Si        0.161287269064933    0.300629567856089    0.292105286521310  0.0000
  Si     Si        0.342756401680206    0.694461914897544    0.284601013691109  0.0000
  Si     Si        0.845499596128710    0.314969200672113    0.728545398673761  0.0000
  Si     Si        0.657318061955342    0.682423312108170    0.721902523984322  0.0000
  Si     Si        0.833867567058706    0.716559268811282    0.724081640229721  0.0000
  Si     Si        0.669299809964178    0.276428054365354    0.718348435552452  0.0000
  Si     Si        0.163280552210805    0.703178132789600    0.290519896185095  0.0000
  Si     Si        0.340745942573530    0.295278408803306    0.283455216048353  0.0000
  Si     Si        0.333745741311885    0.295847607618862    0.976220397979510  0.0000
  Si     Si        0.159481398306029    0.700621398198896    0.985168985945476  0.0000
  Si     Si        0.339131330893877    0.694431048015560    0.977454328065730  0.0000
  Si     Si        0.154143631295931    0.298056926848626    0.987180552811431  0.0000
  Si     Si        0.648654984891289    0.675654227664870    0.027464615383342  0.0000
  Si     Si        0.846969001387091    0.322818780840193    0.038730294230176  0.0000
  O3     O3        0.109499114426540    0.184801109608099    0.386248467799371  0.0000
  O2     O2        0.396445464613858    0.821992275439310    0.371363604590184  0.0000
  O2     O2        0.907176051041242    0.194858572572713    0.654763654991061  0.0000
  O3     O3        0.595789980703750    0.789277870840264    0.639412614758346  0.0000
  O2     O2        0.887080180259423    0.849407331035737    0.642151948868598  0.0000
  O3     O3        0.616519321935053    0.155923623102899    0.627720762474511  0.0000
  O3     O3        0.112191890628301    0.820931694788977    0.383657791301650  0.0000
  O2     O2        0.394048111014754    0.166770002018053    0.368278263787227  0.0000
  O3     O3        0.979033615074632    0.003258161453422    0.484161071286253  0.0000
  O3     O3        0.515849501454967    0.998354903311530    0.462411235539487  0.0000
  O3     O3        0.010301245196112    0.991857284274172    0.219610479177042  0.0000
  O2     O2        0.486310456062211    0.998819438165851    0.213330661810122  0.0000
  O2     O2        0.022097508445982    0.988574225044129    0.726909932790192  0.0000
  O3     O3        0.469698574759785    0.005972862549330    0.719496191843596  0.0000
  O3     O3        0.617660847037880    0.126506278030138    0.124363861458484  0.0000
  O3     O3        0.875412104882121    0.872165984303884    0.134843669470127  0.0000
  O2     O2        0.380500050311459    0.165325940388309    0.884316274793775  0.0000
  O2     O2        0.110016381500397    0.826782223736022    0.892804918598686  0.0000
  O2     O2        0.392549592768426    0.820652480955196    0.890883206802083  0.0000
  O2     O2        0.098615610190279    0.173949190133673    0.901041913508154  0.0000
  O2     O2        0.586809837126688    0.792356909708793    0.104767797090425  0.0000
  O2     O2        0.907628072743750    0.203331585990692    0.116778533407450  0.0000
  O2     O2        0.511675006759470    0.025161361282747    0.961250908733137  0.0000
  O2     O2        0.980373792533606    0.969361854473739    0.970876194568320  0.0000
  O2     O2        0.141201901940490    0.502090686297417    0.315782086031418  0.0000
  O2     O2        0.364793601030980    0.494703903381375    0.316466491894983  0.0000
  O2     O2        0.865194414098405    0.519164434416172    0.703988846729865  0.0000
  O2     O2        0.640452125596904    0.476083261241599    0.709173282022386  0.0000
  O2     O2        0.251493052885056    0.264209651229520    0.322025291761587  0.0000
  O2     O2        0.254049039228794    0.732103763803106    0.321690888859186  0.0000
  O2     O2        0.759500205307918    0.269713727880363    0.674509248119717  0.0000
  O2     O2        0.744782926917294    0.726060498463507    0.673298012286220  0.0000
  O2     O2        0.142656234122266    0.250045540244439    0.140138072509565  0.0000
  O2     O2        0.355769656237815    0.732580498600775    0.130416291695457  0.0000
  O2     O2        0.847762415592689    0.276737078074351    0.883382952072303  0.0000
  O2     O2        0.650495009543164    0.736497231720783    0.874788762939963  0.0000
  O3     O3        0.836443526841223    0.774595496892360    0.874305706457637  0.0000
  O3     O3        0.662445120957672    0.206367817992186    0.866284479082236  0.0000
  O2     O2        0.147280272510750    0.751808454495182    0.137551118548447  0.0000
  O2     O2        0.351437687443487    0.256595873867857    0.128717964842661  0.0000
  O3     O3        0.623673342175363    0.476399085369304    0.041077341029510  0.0000
  O3     O3        0.871975220850100    0.520021667944516    0.063255729817449  0.0000
  O2     O2        0.359410371449655    0.494160243714967    0.942629272187989  0.0000
  O2     O2        0.132610409336191    0.500178415767953    0.961258268161186  0.0000
  O3     O3        0.759837696694895    0.287558508130846    0.085993363599523  0.0000
  O3     O3        0.734185032832025    0.706334665790188    0.085287133760942  0.0000
  O2     O2        0.242905148529471    0.267422399130238    0.946278767717208  0.0000
  O2     O2        0.249002103356679    0.726983799396084    0.945804206598284  0.0000
