data_c00124.vasp
_audit_creation_method             Generated by GULP
_audit_author_name                 Salvador R. G. Balestra
_symmetry_space_group_name_H-M     'P 1             '
_symmetry_Int_Tables_number        1

loop_
_symmetry_equiv_pos_site_id
_symmetry_equiv_pos_as_xyz
_cell_length_a                       17.2805
_cell_length_b                        7.6444
_cell_length_c                       10.2264
_cell_angle_alpha                   89.3481
_cell_angle_beta                    91.0149
_cell_angle_gamma                   89.7290

loop_
_atom_site_label
_atom_site_type_symbol
_atom_site_fract_x
_atom_site_fract_y
_atom_site_fract_z
_atom_site_charge
  Ge     Ge        0.052090000000021    0.000000000000000    0.372269999999958  0.0000
  Ge     Ge        0.940727572162576    0.995121670720203    0.629447215866728  0.0000
  Ge     Ge        0.846888934192889    0.677809924231917    0.010784199431316  0.0000
  Ge     Ge        0.162354060161919    0.298034818922519    0.962227603353492  0.0000
  Si     Si        0.450477636299270    0.005019699136760    0.350009048921560  0.0000
  Si     Si        0.542081697558781    0.011327274038911    0.618494194377425  0.0000
  Si     Si        0.556234320752151    0.995210427451998    0.100854929048134  0.0000
  Si     Si        0.943262668533007    0.988405798606383    0.122459814523209  0.0000
  Si     Si        0.439128606910250    0.011593766627320    0.864260224426761  0.0000
  Si     Si        0.049296228671561    0.009754904794786    0.885122348167190  0.0000
  Si     Si        0.167994671847383    0.289474633858945    0.270667596116805  0.0000
  Si     Si        0.337405904404176    0.714919754063390    0.269701265101293  0.0000
  Si     Si        0.823835372898312    0.285518965389154    0.699708568484247  0.0000
  Si     Si        0.656885356973649    0.714496158553544    0.714306099594944  0.0000
  Si     Si        0.833851053842975    0.691114375129044    0.700402150817902  0.0000
  Si     Si        0.645659283291166    0.314021924838541    0.708487992117701  0.0000
  Si     Si        0.159005892251930    0.698095451064583    0.270272756636714  0.0000
  Si     Si        0.344716452440911    0.313901132182616    0.268327179173757  0.0000
  Si     Si        0.652713532607347    0.306962732072948    0.012903761858098  0.0000
  Si     Si        0.343079163285110    0.323760982101176    0.959889782100375  0.0000
  Si     Si        0.152308177364340    0.704086669365541    0.968996739216829  0.0000
  Si     Si        0.332317127743565    0.719997605497207    0.964499994962933  0.0000
  Si     Si        0.665805936384260    0.701728760385636    0.022319481776345  0.0000
  Si     Si        0.832006691219124    0.271133288324617    0.003383607698145  0.0000
  O3     O3        0.114953691086678    0.173551853831835    0.361493919245895  0.0000
  O2     O2        0.389376374460927    0.846159621692584    0.354294280630750  0.0000
  O3     O3        0.874498839516598    0.165792878582440    0.608908246416719  0.0000
  O2     O2        0.602056226334586    0.852337712225938    0.639796492851090  0.0000
  O3     O3        0.889255355340580    0.802747444136395    0.609470523268093  0.0000
  O2     O2        0.586474953709816    0.196006439237729    0.626300175708367  0.0000
  O3     O3        0.102070952619747    0.804493685127466    0.359309860269490  0.0000
  O2     O2        0.404901178920333    0.189479795608175    0.346058098016672  0.0000
  O1     O1        0.015774995610743    0.007689531742637    0.526251447676761  0.0000
  O2     O2        0.505099294964106    0.994956917114563    0.476037795295804  0.0000
  O3     O3        0.971752302021303    0.012819613154913    0.269963336543818  0.0000
  O2     O2        0.503685997742718    0.985370523281561    0.225623316822223  0.0000
  O3     O3        0.979240494448011    0.005288202194975    0.785676069385794  0.0000
  O2     O2        0.472985895672865    0.002100311489298    0.720595261638137  0.0000
  O2     O2        0.600763009162976    0.180172091188077    0.100448482680107  0.0000
  O3     O3        0.913988599443340    0.791568960323646    0.101310113981327  0.0000
  O2     O2        0.403218495823440    0.204007587322962    0.883585189715240  0.0000
  O2     O2        0.099542924808954    0.830675799637976    0.878575173335209  0.0000
  O2     O2        0.373331684579575    0.864051516200542    0.875519847932680  0.0000
  O3     O3        0.106713989913170    0.170105625475407    0.861450988218707  0.0000
  O2     O2        0.617492851694355    0.836426523534625    0.107982056422921  0.0000
  O2     O2        0.871737266887846    0.118877303962444    0.089824329469085  0.0000
  O2     O2        0.505832641814649    0.971232772249205    0.969969918434401  0.0000
  O2     O2        0.015436019004044    0.033918272010187    0.030757463827547  0.0000
  O2     O2        0.142172424467869    0.491982734138408    0.281318428838219  0.0000
  O2     O2        0.365164858664301    0.515705770568078    0.297505374982552  0.0000
  O2     O2        0.850749825910468    0.485732942931925    0.683036765624245  0.0000
  O2     O2        0.626607487516283    0.518761183759948    0.684511094957023  0.0000
  O2     O2        0.258142084230252    0.271584922799440    0.315067761325424  0.0000
  O2     O2        0.248207835839806    0.736913994746767    0.310263436614052  0.0000
  O2     O2        0.732738650249975    0.271402043211340    0.664230227400833  0.0000
  O2     O2        0.744170949893961    0.734280899091111    0.663485734886232  0.0000
  O3     O3        0.158463033405565    0.226775759923222    0.122372094970285  0.0000
  O2     O2        0.345768648170816    0.763970362601714    0.116827236830775  0.0000
  O2     O2        0.837705433514637    0.223750354030623    0.850306023100912  0.0000
  O2     O2        0.658507033597469    0.751048155825987    0.868701510946704  0.0000
  O3     O3        0.851475906702051    0.743581231462937    0.849767549054912  0.0000
  O2     O2        0.635910179748896    0.265610907265674    0.860976710094794  0.0000
  O2     O2        0.143512798167611    0.759993415565405    0.120225032281521  0.0000
  O2     O2        0.348860905223082    0.277697743080279    0.114003237693811  0.0000
  O2     O2        0.631526319110771    0.507025885495258    0.045268649540422  0.0000
  O3     O3        0.870234101865268    0.457736548175975    0.028213315915220  0.0000
  O2     O2        0.365602309400898    0.526785281447232    0.935116661161496  0.0000
  O3     O3        0.125842322265547    0.507955553899128    0.947674912835148  0.0000
  O2     O2        0.742848121609448    0.276476423646679    0.045804004712851  0.0000
  O3     O3        0.754342770565243    0.709787941575276    0.067022398795447  0.0000
  O3     O3        0.256627500832936    0.290239281259446    0.910072803424019  0.0000
  O2     O2        0.241561551474721    0.724172020966527    0.928538986070971  0.0000
