data_c00129.vasp
_audit_creation_method             Generated by GULP
_audit_author_name                 Salvador R. G. Balestra
_symmetry_space_group_name_H-M     'P 1             '
_symmetry_Int_Tables_number        1

loop_
_symmetry_equiv_pos_site_id
_symmetry_equiv_pos_as_xyz
_cell_length_a                       17.3946
_cell_length_b                        7.6668
_cell_length_c                       10.0508
_cell_angle_alpha                   90.3090
_cell_angle_beta                    90.9582
_cell_angle_gamma                   89.8179

loop_
_atom_site_label
_atom_site_type_symbol
_atom_site_fract_x
_atom_site_fract_y
_atom_site_fract_z
_atom_site_charge
  Ge     Ge        0.052090000000021    0.000000000000000    0.372269999999958  0.0000
  Ge     Ge        0.550710097968580    0.989215134899122    0.656284984982018  0.0000
  Ge     Ge        0.559711891742553    0.989962263222338    0.149843123808026  0.0000
  Ge     Ge        0.163100865491145    0.303003689941512    0.295037243967881  0.0000
  Si     Si        0.452625125180862    0.992882885697257    0.392598663613768  0.0000
  Si     Si        0.947466595418617    0.989713026947841    0.624647713549484  0.0000
  Si     Si        0.948553700270977    0.991389525047701    0.106992600390004  0.0000
  Si     Si        0.442334585283386    0.992898675153709    0.909975285394316  0.0000
  Si     Si        0.057332176334317    0.996421626941358    0.866723679293848  0.0000
  Si     Si        0.347220736425158    0.691286124003257    0.284261038091336  0.0000
  Si     Si        0.844213202477645    0.294205567677518    0.725043509164154  0.0000
  Si     Si        0.662806083406385    0.688145249222173    0.724020594865161  0.0000
  Si     Si        0.839618746660897    0.692689938000509    0.725715952584169  0.0000
  Si     Si        0.666850544468519    0.281529241484950    0.724089737760993  0.0000
  Si     Si        0.169319104631136    0.713534426161251    0.290444060928414  0.0000
  Si     Si        0.342320746054377    0.291524331618048    0.287748226714029  0.0000
  Si     Si        0.667662254342757    0.282393137594176    0.031160288875243  0.0000
  Si     Si        0.839623123500608    0.692844576289919    0.038805407595355  0.0000
  Si     Si        0.333452888547134    0.292226224089615    0.972146212688054  0.0000
  Si     Si        0.162964140144074    0.702863093920498    0.980727988916833  0.0000
  Si     Si        0.340596456515196    0.686099886669037    0.972448182699334  0.0000
  Si     Si        0.157120567747505    0.298942339252739    0.978568305625932  0.0000
  Si     Si        0.662687637449134    0.687170319388876    0.031797984455005  0.0000
  Si     Si        0.845193123522172    0.297652376575064    0.037270494565011  0.0000
  O1     O1        0.100465776493132    0.191768554545021    0.390787898414885  0.0000
  O2     O2        0.404513474909304    0.817175708216447    0.363767434578691  0.0000
  O2     O2        0.899728325340484    0.168085866111626    0.643515177096324  0.0000
  O3     O3        0.605014010925138    0.801130710992455    0.636378886240315  0.0000
  O2     O2        0.893909143083179    0.823102285830801    0.648297201910830  0.0000
  O3     O3        0.612223601451214    0.163918584477191    0.634087456382828  0.0000
  O3     O3        0.122556840490811    0.840653846589355    0.383711867121399  0.0000
  O2     O2        0.403340557195879    0.164690256139609    0.357222687168584  0.0000
  O3     O3        0.975681716691985    0.978352311531309    0.475502562938329  0.0000
  O3     O3        0.474226740194766    0.996395729676307    0.547303050408128  0.0000
  O3     O3        0.015324330190130    0.983188401083300    0.212646525879801  0.0000
  O3     O3        0.531794584356216    0.991599976019528    0.313728635070960  0.0000
  O2     O2        0.025063289185260    0.988860243410965    0.715755556038652  0.0000
  O3     O3        0.512367261557653    0.999582470888122    0.812686820849120  0.0000
  O3     O3        0.618747215813434    0.166448053708867    0.127085690060551  0.0000
  O2     O2        0.891272059116528    0.827322355531102    0.122837127047912  0.0000
  O2     O2        0.384228955937413    0.156584068099139    0.889434062971583  0.0000
  O2     O2        0.113200377955088    0.830622315669005    0.887951777312163  0.0000
  O2     O2        0.393768056665289    0.813928313550574    0.887980307200974  0.0000
  O2     O2        0.101916129844819    0.179080186542759    0.886766874237952  0.0000
  O3     O3        0.607614810560387    0.796272133269782    0.123547801029426  0.0000
  O2     O2        0.899767370659345    0.170591558257236    0.122936252790463  0.0000
  O3     O3        0.476133610780757    0.003992831466927    0.058653203450534  0.0000
  O2     O2        0.984493083574182    0.984143563417593    0.960748231660131  0.0000
  O3     O3        0.142471478555334    0.519207275210268    0.317081814997917  0.0000
  O2     O2        0.367318479042361    0.491091561421721    0.319749639275981  0.0000
  O2     O2        0.862849191188959    0.494309522781710    0.687919384700027  0.0000
  O2     O2        0.645280547716696    0.483968110625653    0.704607800136019  0.0000
  O3     O3        0.257610570905882    0.258208630381854    0.339954899112047  0.0000
  O2     O2        0.260025026794362    0.732720530074985    0.324474099475240  0.0000
  O2     O2        0.755896073351017    0.251273866286909    0.687143016084704  0.0000
  O2     O2        0.750867864649603    0.727022637567024    0.684373128815047  0.0000
  O3     O3        0.148445522085566    0.242712823232444    0.129942889856830  0.0000
  O2     O2        0.357101367881435    0.722979916520441    0.127761136192397  0.0000
  O2     O2        0.858666031625299    0.264166658357882    0.881321336069149  0.0000
  O2     O2        0.650295404151902    0.744567946338113    0.878147324357347  0.0000
  O2     O2        0.850250293511443    0.724373065070964    0.882520608231302  0.0000
  O2     O2        0.654156872067017    0.223971079337425    0.877574459574088  0.0000
  O2     O2        0.154740574310853    0.759440039462254    0.134327456431381  0.0000
  O2     O2        0.341235673160001    0.259982493760353    0.129343715154957  0.0000
  O2     O2        0.642990732929419    0.483661925759953    0.047441825016619  0.0000
  O2     O2        0.866105285332573    0.496639627373753    0.076119866363771  0.0000
  O2     O2        0.362178360544501    0.486694340787829    0.936475457309071  0.0000
  O2     O2        0.134566492288818    0.503322958973954    0.961414016677192  0.0000
  O2     O2        0.757154312130661    0.258680081610900    0.071049309432885  0.0000
  O2     O2        0.751018113918728    0.722003534707322    0.075947679620147  0.0000
  O2     O2        0.244369221731485    0.270223976501171    0.930281587422240  0.0000
  O2     O2        0.251304809125212    0.720407127516172    0.937571860017249  0.0000
