data_c00170.vasp
_audit_creation_method             Generated by GULP
_audit_author_name                 Salvador R. G. Balestra
_symmetry_space_group_name_H-M     'P 1             '
_symmetry_Int_Tables_number        1

loop_
_symmetry_equiv_pos_site_id
_symmetry_equiv_pos_as_xyz
_cell_length_a                       17.3264
_cell_length_b                        7.6694
_cell_length_c                       10.2051
_cell_angle_alpha                   89.3246
_cell_angle_beta                    89.5975
_cell_angle_gamma                   89.9541

loop_
_atom_site_label
_atom_site_type_symbol
_atom_site_fract_x
_atom_site_fract_y
_atom_site_fract_z
_atom_site_charge
  Ge     Ge        0.052090000000021    0.000000000000000    0.372269999999958  0.0000
  Ge     Ge        0.558948575434749    0.019511307621009    0.605993088201415  0.0000
  Ge     Ge        0.342827399882576    0.719670822278617    0.274765486165810  0.0000
  Ge     Ge        0.667995919948458    0.711387117045731    0.016208544187349  0.0000
  Si     Si        0.456351548682506    0.013200148231727    0.347644603241911  0.0000
  Si     Si        0.957257609789167    0.009656538680954    0.642573947024169  0.0000
  Si     Si        0.556577912129641    0.003346960581495    0.091823639415874  0.0000
  Si     Si        0.945027284111332    0.000220033806997    0.126236131975613  0.0000
  Si     Si        0.446438992727791    0.012505991706956    0.852416363184508  0.0000
  Si     Si        0.061567695167461    0.010317796058215    0.894093676393091  0.0000
  Si     Si        0.169660858368363    0.294290550123040    0.271173204613891  0.0000
  Si     Si        0.845600907060626    0.305374829970960    0.709371681314602  0.0000
  Si     Si        0.672672687698648    0.724181499728086    0.707745286059083  0.0000
  Si     Si        0.849196491399211    0.704492556626055    0.712787150672652  0.0000
  Si     Si        0.667850853563204    0.316470605318267    0.706176284072728  0.0000
  Si     Si        0.162215423388193    0.699627509084157    0.274648844850308  0.0000
  Si     Si        0.347440885056880    0.310058645738074    0.272476626247878  0.0000
  Si     Si        0.660784332605110    0.305964458181764    0.008032698245066  0.0000
  Si     Si        0.848201910497472    0.691935235492810    0.022530974523897  0.0000
  Si     Si        0.348393886351196    0.318435766692240    0.964796061755956  0.0000
  Si     Si        0.163506614554644    0.701720533516818    0.967735117257383  0.0000
  Si     Si        0.341797382367044    0.718159148074804    0.961236648908419  0.0000
  Si     Si        0.170069615487804    0.303690826554982    0.966011645960882  0.0000
  Si     Si        0.840084852386292    0.296836385613388    0.015741934420879  0.0000
  O3     O3        0.115654795876109    0.170904938852647    0.355451073701168  0.0000
  O3     O3        0.402599408268484    0.844812485068711    0.367857236682754  0.0000
  O2     O2        0.899619091575959    0.175298563302307    0.627761666941672  0.0000
  O3     O3        0.618221844092743    0.839686470884033    0.617677126889831  0.0000
  O2     O2        0.907508576079815    0.831692486572254    0.635907900622869  0.0000
  O3     O3        0.612187216427698    0.208857931413204    0.615872435524575  0.0000
  O3     O3        0.099077863335761    0.804237964370831    0.354389414575702  0.0000
  O2     O2        0.401381092006803    0.182893720637713    0.357295244699663  0.0000
  O3     O3        0.020614681777420    0.012084159927587    0.531635620625730  0.0000
  O3     O3        0.524748837332591    0.018901822570626    0.448356334705782  0.0000
  O3     O3        0.971955651211567    0.011838207935078    0.274040158018247  0.0000
  O2     O2        0.491388187958948    0.008236874563398    0.201297547538660  0.0000
  O2     O2        0.999211537216067    0.019904525990887    0.781682004091138  0.0000
  O3     O3        0.479011345749670    0.016071447421308    0.706650948622889  0.0000
  O2     O2        0.608715657215390    0.177605893125752    0.096108311379700  0.0000
  O2     O2        0.907117757110290    0.811953245826032    0.100760820783269  0.0000
  O2     O2        0.403188329123890    0.195147297730365    0.879791245050619  0.0000
  O2     O2        0.108195032306027    0.828196843431172    0.884212245485832  0.0000
  O2     O2        0.388403046247619    0.849300588018920    0.866489949356313  0.0000
  O2     O2        0.120588791244582    0.172516882956536    0.878701948468108  0.0000
  O3     O3        0.611186148687893    0.838302902673818    0.114496840797253  0.0000
  O2     O2        0.883534404835663    0.153847850975638    0.102110668971049  0.0000
  O2     O2        0.518139844871803    0.985559910070864    0.949337730576503  0.0000
  O2     O2        0.019978792846847    0.025191904307326    0.034607474540333  0.0000
  O2     O2        0.148168382988384    0.494491890582082    0.298100304056414  0.0000
  O3     O3        0.367530384741828    0.505748484066455    0.306323802698212  0.0000
  O2     O2        0.871676866414543    0.504670269748375    0.681197569232740  0.0000
  O2     O2        0.649127780396785    0.521432987428193    0.696375090805811  0.0000
  O2     O2        0.258888785867553    0.264515262219404    0.309043513690423  0.0000
  O3     O3        0.247620728757024    0.751977537220390    0.318131365810275  0.0000
  O2     O2        0.756976133147303    0.281279936243143    0.666173696838062  0.0000
  O2     O2        0.762454410056636    0.745074164729431    0.665040995066689  0.0000
  O2     O2        0.158717861431419    0.251539628476499    0.117980675779779  0.0000
  O3     O3        0.355196981493659    0.768809564540019    0.110366705020374  0.0000
  O2     O2        0.853207960453650    0.258064560846373    0.862874545309500  0.0000
  O3     O3        0.662686164078149    0.785240200560357    0.856441150909574  0.0000
  O2     O2        0.853150114100388    0.736747589619882    0.868031082683389  0.0000
  O2     O2        0.653317318660158    0.251874627310699    0.855878037318027  0.0000
  O2     O2        0.153876034258178    0.746145941494224    0.120383990726380  0.0000
  O2     O2        0.360348326873215    0.276889080023760    0.117710442630950  0.0000
  O3     O3        0.633463960674852    0.501172055861725    0.029342897550533  0.0000
  O2     O2        0.871700715191358    0.489748536678723    0.048230127828463  0.0000
  O2     O2        0.370609320093522    0.519991614595811    0.936067059263114  0.0000
  O2     O2        0.140895646388467    0.501302059758759    0.940000994062603  0.0000
  O2     O2        0.749775199274641    0.287560349843711    0.051532375007495  0.0000
  O3     O3        0.761730425730730    0.723071054242206    0.070814292993964  0.0000
  O2     O2        0.259661033641500    0.285680842784106    0.925620759669427  0.0000
  O2     O2        0.251743890034989    0.734033647394168    0.925064820522426  0.0000
