data_c00190.vasp
_audit_creation_method             Generated by GULP
_audit_author_name                 Salvador R. G. Balestra
_symmetry_space_group_name_H-M     'P 1             '
_symmetry_Int_Tables_number        1

loop_
_symmetry_equiv_pos_site_id
_symmetry_equiv_pos_as_xyz
_cell_length_a                       16.9577
_cell_length_b                        7.5777
_cell_length_c                       10.4753
_cell_angle_alpha                   89.9347
_cell_angle_beta                    90.5033
_cell_angle_gamma                   90.1966

loop_
_atom_site_label
_atom_site_type_symbol
_atom_site_fract_x
_atom_site_fract_y
_atom_site_fract_z
_atom_site_charge
  Ge     Ge        0.052090000000021    0.000000000000000    0.372269999999958  0.0000
  Ge     Ge        0.550268423525450    0.978892505559513    0.113345464097591  0.0000
  Ge     Ge        0.940809441671595    0.993938818781709    0.111033119859711  0.0000
  Ge     Ge        0.328671605811397    0.265182027464402    0.973126419612966  0.0000
  Si     Si        0.453849718287864    0.984408806925057    0.371426023716866  0.0000
  Si     Si        0.951547828497782    0.002515726664034    0.633052779992517  0.0000
  Si     Si        0.550551723375345    0.977061852473652    0.629990949418640  0.0000
  Si     Si        0.439580145186339    0.988838802710414    0.871666137765740  0.0000
  Si     Si        0.053837686762443    0.992359948769654    0.878999036084265  0.0000
  Si     Si        0.154966535443351    0.314145962049799    0.286630425657828  0.0000
  Si     Si        0.355016062515499    0.674818997878859    0.271358336251988  0.0000
  Si     Si        0.849953524332113    0.309487573188616    0.725280457619384  0.0000
  Si     Si        0.651355120930359    0.668035396584105    0.714736596768988  0.0000
  Si     Si        0.831395886629074    0.714942292923323    0.727324649285585  0.0000
  Si     Si        0.668611111365653    0.263593658853281    0.715551774493443  0.0000
  Si     Si        0.172868672558452    0.719848948766861    0.281924089083818  0.0000
  Si     Si        0.336009786567880    0.267108900219532    0.276264567046980  0.0000
  Si     Si        0.668687718942554    0.258040225119086    0.012338751593457  0.0000
  Si     Si        0.820821157909849    0.715809048531499    0.024498260951928  0.0000
  Si     Si        0.166406124354949    0.712867806624563    0.986674390663639  0.0000
  Si     Si        0.351253886651519    0.670579548608360    0.977005064277666  0.0000
  Si     Si        0.143891692237335    0.311962447049873    0.988960055121165  0.0000
  Si     Si        0.640569923495912    0.654419986966200    0.011889666987182  0.0000
  Si     Si        0.850190300493903    0.320264111664274    0.021449726683203  0.0000
  O3     O3        0.094766609618842    0.207725972434023    0.372694666488413  0.0000
  O2     O2        0.415071782560007    0.789777873274735    0.356237903193897  0.0000
  O2     O2        0.910970990203664    0.194970500326396    0.643543479004925  0.0000
  O2     O2        0.592045928358896    0.785544546887363    0.629526781414073  0.0000
  O2     O2        0.885242275026731    0.851952932937977    0.651336591987866  0.0000
  O2     O2        0.618107615076810    0.128038810588528    0.629700444918380  0.0000
  O3     O3        0.129280816307610    0.849989484331668    0.375228537260633  0.0000
  O2     O2        0.386794636235709    0.135167878370880    0.363912909227301  0.0000
  O3     O3        0.987941377490939    0.979048872505435    0.495995949817579  0.0000
  O2     O2        0.495539669512165    0.996976516472307    0.507654830886688  0.0000
  O1     O1        0.997270236250209    0.953380259115364    0.240059566912899  0.0000
  O3     O3        0.518606676957761    0.014839849643063    0.264994234532078  0.0000
  O2     O2        0.023742005285394    0.985632862020160    0.733669099649886  0.0000
  O2     O2        0.495454636496722    0.999506985025153    0.751683736545640  0.0000
  O3     O3        0.633374638070209    0.109291653502688    0.099454170963353  0.0000
  O3     O3        0.857797928999086    0.859949383535413    0.115074368765367  0.0000
  O3     O3        0.367341640308670    0.123389584803758    0.863013566688690  0.0000
  O2     O2        0.127453504764410    0.857538617971502    0.894235133358267  0.0000
  O2     O2        0.404601848871539    0.790791084906622    0.885931596894062  0.0000
  O2     O2        0.079369421056321    0.193184391873219    0.915082778900241  0.0000
  O3     O3        0.576211638463692    0.760891345631417    0.088847391117664  0.0000
  O3     O3        0.909692772279601    0.211561392772847    0.108526892505327  0.0000
  O3     O3        0.484178731711365    0.050565401638005    0.000098352233576  0.0000
  O3     O3        0.986897554378936    0.929047896413429    0.973004675074671  0.0000
  O2     O2        0.142080885732499    0.521519333645591    0.307329405013570  0.0000
  O2     O2        0.369037925429019    0.466803208562857    0.292544317611478  0.0000
  O2     O2        0.863797417433615    0.517573736383021    0.701296658004543  0.0000
  O2     O2        0.637577727782203    0.461197493853378    0.686398946371652  0.0000
  O2     O2        0.245021527596260    0.260960458488499    0.319867935108719  0.0000
  O2     O2        0.266459026938324    0.727200957322890    0.307797462874598  0.0000
  O2     O2        0.761288824653960    0.254350461190491    0.682875980345967  0.0000
  O2     O2        0.740651168616211    0.723580422552638    0.679429207689832  0.0000
  O2     O2        0.137074362588813    0.263054194740778    0.138868321365670  0.0000
  O2     O2        0.372080914269935    0.723753461121529    0.123718455099729  0.0000
  O2     O2        0.866051034938867    0.266868212653166    0.873904690771652  0.0000
  O2     O2        0.632804486743730    0.707126082657380    0.862506390636831  0.0000
  O2     O2        0.832619717548003    0.766106006101458    0.875851018005669  0.0000
  O2     O2        0.657873080295011    0.209345349250052    0.862854558131064  0.0000
  O2     O2        0.155974936084482    0.772887754790583    0.133845216636396  0.0000
  O3     O3        0.341998049408863    0.204882903013339    0.130924339470902  0.0000
  O2     O2        0.625800904001044    0.446459923748823    0.033417176430905  0.0000
  O2     O2        0.863520201808651    0.527206576967840    0.046831727410832  0.0000
  O3     O3        0.371030812251103    0.470323839001849    0.950887237081693  0.0000
  O2     O2        0.126467479122332    0.520213502128396    0.966629492574683  0.0000
  O2     O2        0.760079414936874    0.272000390772875    0.051185009465584  0.0000
  O2     O2        0.728674315635939    0.703086994341069    0.058199889245609  0.0000
  O3     O3        0.229567467121772    0.269379410739025    0.938194147328566  0.0000
  O2     O2        0.258352163905911    0.702477054813640    0.952549882331069  0.0000
