data_c00178.vasp
_audit_creation_method             Generated by GULP
_audit_author_name                 Salvador R. G. Balestra
_symmetry_space_group_name_H-M     'P 1             '
_symmetry_Int_Tables_number        1

loop_
_symmetry_equiv_pos_site_id
_symmetry_equiv_pos_as_xyz
_cell_length_a                       17.2893
_cell_length_b                        7.6552
_cell_length_c                       10.1670
_cell_angle_alpha                   90.8770
_cell_angle_beta                    90.3698
_cell_angle_gamma                   89.9740

loop_
_atom_site_label
_atom_site_type_symbol
_atom_site_fract_x
_atom_site_fract_y
_atom_site_fract_z
_atom_site_charge
  Ge     Ge        0.052090000000021    0.000000000000000    0.372269999999958  0.0000
  Ge     Ge        0.551136934416411    0.996020638834988    0.625041679947427  0.0000
  Ge     Ge        0.658843268397066    0.329638442157107    0.045591116112710  0.0000
  Ge     Ge        0.843468815431408    0.337789281360410    0.055796806734622  0.0000
  Si     Si        0.450678782328184    0.997690592945694    0.359699650291053  0.0000
  Si     Si        0.949444617243382    0.000693415051595    0.632543399900000  0.0000
  Si     Si        0.552234285467173    0.026428380133595    0.108361474047646  0.0000
  Si     Si        0.945190752846386    0.026037613580148    0.117137722603125  0.0000
  Si     Si        0.438854713275046    0.004621290696443    0.868946332849600  0.0000
  Si     Si        0.056048702146903    0.007676466011302    0.876872850039629  0.0000
  Si     Si        0.161634171077105    0.300663980872361    0.286492839019379  0.0000
  Si     Si        0.343494859846523    0.695843179782449    0.291792831480356  0.0000
  Si     Si        0.841960741496271    0.302213084402543    0.738432582286090  0.0000
  Si     Si        0.662881944212386    0.701461836230066    0.716737239504980  0.0000
  Si     Si        0.841180332743646    0.704631216676035    0.722154125952830  0.0000
  Si     Si        0.665804364973511    0.293547821538594    0.734612233605634  0.0000
  Si     Si        0.165425439310463    0.704804698866112    0.297535614625208  0.0000
  Si     Si        0.341573686945631    0.295593362730188    0.281385649149222  0.0000
  Si     Si        0.838117689936408    0.731818953747426    0.027950437783708  0.0000
  Si     Si        0.337043859366954    0.304640966627713    0.975308693110789  0.0000
  Si     Si        0.160220880223004    0.711546966765392    0.991555361810995  0.0000
  Si     Si        0.338802719020550    0.702755130030365    0.983485770275903  0.0000
  Si     Si        0.157038752276843    0.309059559381077    0.982877435640626  0.0000
  Si     Si        0.657141381002322    0.727748645810868    0.017881161271675  0.0000
  O3     O3        0.108662615135455    0.185961539417873    0.377160276934195  0.0000
  O2     O2        0.399638785959412    0.821602635241462    0.376645924279077  0.0000
  O2     O2        0.899747526941878    0.173556866234243    0.662289267727610  0.0000
  O3     O3        0.606387805403359    0.807533761255589    0.624261227271057  0.0000
  O2     O2        0.896914825967314    0.826368807933750    0.637698068964085  0.0000
  O3     O3        0.608591372203148    0.176487057394062    0.648769874844830  0.0000
  O3     O3        0.113278412063270    0.822884737426226    0.390492239112792  0.0000
  O2     O2        0.393602399230870    0.165457521459132    0.365883193025891  0.0000
  O3     O3        0.980899470069406    0.013343105812369    0.486862769568349  0.0000
  O3     O3        0.515923052531846    0.013928650735207    0.467188660116930  0.0000
  O3     O3        0.006080664098270    0.969919171686947    0.223679530734048  0.0000
  O2     O2        0.490093892052525    0.985478597335441    0.217581155547742  0.0000
  O2     O2        0.023945986247703    0.988996272259150    0.728890273266174  0.0000
  O3     O3        0.470576859093052    0.988731002633408    0.723346666684203  0.0000
  O3     O3        0.594640085028973    0.208037330901463    0.135617958160884  0.0000
  O2     O2        0.872411969688859    0.892481296654159    0.111700620346318  0.0000
  O2     O2        0.383843883322915    0.174535719970486    0.880765811858799  0.0000
  O2     O2        0.108095125035388    0.838171883836507    0.904984889814330  0.0000
  O2     O2        0.391323391947995    0.829592462361957    0.899604745958951  0.0000
  O2     O2        0.106084165603040    0.185677387044395    0.887860959533589  0.0000
  O2     O2        0.617769828066258    0.875766375112637    0.107157468394119  0.0000
  O3     O3        0.908653078707223    0.214934402800244    0.144519640165818  0.0000
  O2     O2        0.511832677171963    0.027964505966492    0.965356768874133  0.0000
  O2     O2        0.984260438350075    0.020186711620428    0.973856358525636  0.0000
  O2     O2        0.143484002394673    0.503003811173989    0.315887607814915  0.0000
  O2     O2        0.364601097265222    0.494418701218672    0.319847348562275  0.0000
  O2     O2        0.865235129315116    0.501954534533534    0.704495275527865  0.0000
  O2     O2        0.643328201153471    0.496584451741730    0.714673402274063  0.0000
  O2     O2        0.251911399093075    0.261265856828639    0.313178540005980  0.0000
  O2     O2        0.255456198096962    0.733708279880099    0.333667917545770  0.0000
  O2     O2        0.754465237210575    0.264184942601679    0.688327009587101  0.0000
  O2     O2        0.752324304083409    0.730888572118736    0.676353005142534  0.0000
  O2     O2        0.141578357510646    0.254707716497852    0.133500493229881  0.0000
  O2     O2        0.353270031323927    0.736273361197819    0.137854203740849  0.0000
  O3     O3        0.845666591031420    0.271986732283116    0.892588695917652  0.0000
  O2     O2        0.648535496351916    0.778090563681915    0.864409131896867  0.0000
  O2     O2        0.850843560910727    0.763901597533631    0.873479922432266  0.0000
  O3     O3        0.659625252786671    0.246171655707452    0.886552927015214  0.0000
  O2     O2        0.150808716664518    0.759093295700911    0.145588535545610  0.0000
  O2     O2        0.356411842687725    0.260831533876723    0.126563269540824  0.0000
  O3     O3        0.622002064555308    0.539843097460016    0.045681787561989  0.0000
  O3     O3        0.875981619741745    0.551041264090751    0.069919725168473  0.0000
  O2     O2        0.361420326146185    0.503497142877780    0.945251109415159  0.0000
  O2     O2        0.134002398838060    0.511453976924495    0.963008081226037  0.0000
  O1     O1        0.750411553652692    0.316972733591306    0.109375233241770  0.0000
  O2     O2        0.747267323962824    0.712215149698040    0.056868469926539  0.0000
  O2     O2        0.246331303358813    0.279729844107413    0.947380778995572  0.0000
  O2     O2        0.249046441613994    0.736773736135056    0.949394195047840  0.0000
