data_c00116.vasp
_audit_creation_method             Generated by GULP
_audit_author_name                 Salvador R. G. Balestra
_symmetry_space_group_name_H-M     'P 1             '
_symmetry_Int_Tables_number        1

loop_
_symmetry_equiv_pos_site_id
_symmetry_equiv_pos_as_xyz
_cell_length_a                       17.1815
_cell_length_b                        7.6510
_cell_length_c                       10.3055
_cell_angle_alpha                   89.7427
_cell_angle_beta                    90.9083
_cell_angle_gamma                   90.4789

loop_
_atom_site_label
_atom_site_type_symbol
_atom_site_fract_x
_atom_site_fract_y
_atom_site_fract_z
_atom_site_charge
  Ge     Ge        0.052090000000021    0.000000000000000    0.372269999999958  0.0000
  Ge     Ge        0.945566704233807    0.011968325575046    0.635201293053433  0.0000
  Ge     Ge        0.668428385944224    0.273167428188416    0.042537554463073  0.0000
  Ge     Ge        0.829638014634711    0.725986135402517    0.036806483590873  0.0000
  Si     Si        0.451657564720460    0.993461023419685    0.384463335867786  0.0000
  Si     Si        0.546636769710132    0.989076666290229    0.649475627651696  0.0000
  Si     Si        0.556724384238740    0.984943183630112    0.136099741038088  0.0000
  Si     Si        0.947002579956987    0.012275359333496    0.113376420180592  0.0000
  Si     Si        0.442818796110069    0.008918763592994    0.897941861999287  0.0000
  Si     Si        0.056773922760695    0.998232129252529    0.881305456199977  0.0000
  Si     Si        0.161828087139362    0.302969558863368    0.297860870432487  0.0000
  Si     Si        0.346487544332357    0.691287825164198    0.296514866314375  0.0000
  Si     Si        0.840570146015647    0.317849297462589    0.735645822092761  0.0000
  Si     Si        0.648907094452175    0.679775706333645    0.736791672649466  0.0000
  Si     Si        0.825779473556663    0.723175891998351    0.731011475294729  0.0000
  Si     Si        0.662777285994313    0.277690252354425    0.733909549328382  0.0000
  Si     Si        0.166481522706788    0.706381178831608    0.298194150588278  0.0000
  Si     Si        0.341759125144573    0.290280420931155    0.292997198888262  0.0000
  Si     Si        0.335481423144549    0.297486439986642    0.990237004410411  0.0000
  Si     Si        0.163577460505452    0.708417286292300    0.996518669610538  0.0000
  Si     Si        0.344083332191149    0.696229993979099    0.994263911885322  0.0000
  Si     Si        0.155215073647007    0.306223974409656    0.996355661235579  0.0000
  Si     Si        0.648050409088987    0.671088657904716    0.042185098179539  0.0000
  Si     Si        0.850596822682670    0.325684940495247    0.037371705657050  0.0000
  O3     O3        0.108106827143587    0.188253890991024    0.388067739886792  0.0000
  O2     O2        0.401671191973172    0.814612205291907    0.383229586322011  0.0000
  O3     O3        0.901413981937852    0.212129952241501    0.653598847789531  0.0000
  O2     O2        0.586835641638554    0.799538564580436    0.660793809281730  0.0000
  O3     O3        0.877857897604588    0.845141889048467    0.642439361844490  0.0000
  O2     O2        0.611366073848076    0.142681171382407    0.649189742255490  0.0000
  O3     O3        0.115075227979090    0.824416023626467    0.387972145559308  0.0000
  O2     O2        0.394890520195637    0.159712970483058    0.376370934031697  0.0000
  O1     O1        0.979663901567765    0.999556598319463    0.480404707195812  0.0000
  O2     O2        0.500200151380048    0.001278199744712    0.515866895380325  0.0000
  O3     O3        0.013154224571103    0.987922712236801    0.218153093756254  0.0000
  O2     O2        0.511134655588442    0.997544155901666    0.267805921508249  0.0000
  O3     O3        0.027049124550612    0.992388077771864    0.734561753603651  0.0000
  O2     O2        0.485373297154487    0.015903588973018    0.762542957901380  0.0000
  O3     O3        0.629405307816539    0.115966950093232    0.141058369251138  0.0000
  O3     O3        0.876933440305308    0.875733073955884    0.133228773973036  0.0000
  O2     O2        0.380824404626705    0.165620048793648    0.899015435231051  0.0000
  O2     O2        0.115756412978660    0.838418517559458    0.904497589682734  0.0000
  O2     O2        0.399113671642218    0.822326101747622    0.911193684672877  0.0000
  O2     O2        0.098930881264792    0.184532747513711    0.909708960596789  0.0000
  O2     O2        0.586620274144717    0.788001516049105    0.117960287502530  0.0000
  O2     O2        0.912180537034118    0.208125933586776    0.117449408205158  0.0000
  O2     O2        0.504050396273067    0.044787623566540    0.013644996262440  0.0000
  O2     O2        0.981659051768229    0.972573959615998    0.970906006871970  0.0000
  O2     O2        0.143407032881039    0.505107123571125    0.322365904600481  0.0000
  O2     O2        0.366787229660436    0.489426779857737    0.325250025186781  0.0000
  O2     O2        0.856662742182654    0.524643348182290    0.721992506139824  0.0000
  O2     O2        0.630154291639063    0.474576090990900    0.714378013992095  0.0000
  O2     O2        0.252042609038051    0.261382343613661    0.329834215167873  0.0000
  O2     O2        0.257769676458136    0.732001042656363    0.331590029022247  0.0000
  O2     O2        0.752395166392633    0.271909050984492    0.688241689900835  0.0000
  O2     O2        0.735042107763660    0.725695017382666    0.685697324500548  0.0000
  O2     O2        0.143525249924817    0.256476707739680    0.146886492556876  0.0000
  O2     O2        0.360829190959107    0.735304657941762    0.145537260091301  0.0000
  O2     O2        0.849703878028283    0.264468257595032    0.886724623053174  0.0000
  O2     O2        0.645807887127775    0.721033921472011    0.889275082202913  0.0000
  O3     O3        0.831942930780375    0.792594754259132    0.877120293060803  0.0000
  O3     O3        0.658964807750001    0.215870758421323    0.881861251521506  0.0000
  O2     O2        0.151534789018172    0.757044830800673    0.146798366018074  0.0000
  O2     O2        0.352230322988499    0.251226275656094    0.140748031469430  0.0000
  O3     O3        0.623897249020675    0.472376959440031    0.064112637855305  0.0000
  O3     O3        0.874988952491296    0.525591721026287    0.051972482192367  0.0000
  O2     O2        0.363708546214310    0.495587099101426    0.961154884764750  0.0000
  O2     O2        0.134569941935269    0.509490302409022    0.970747336710019  0.0000
  O3     O3        0.764369837315857    0.295913900063227    0.089724702267700  0.0000
  O3     O3        0.735636381442725    0.707063875712232    0.091095961345520  0.0000
  O2     O2        0.244254912749917    0.275049003475431    0.957538912653754  0.0000
  O2     O2        0.253894916111858    0.730827461152888    0.960467854828893  0.0000
