data_c00181.vasp
_audit_creation_method             Generated by GULP
_audit_author_name                 Salvador R. G. Balestra
_symmetry_space_group_name_H-M     'P 1             '
_symmetry_Int_Tables_number        1

loop_
_symmetry_equiv_pos_site_id
_symmetry_equiv_pos_as_xyz
_cell_length_a                       17.1926
_cell_length_b                        7.6095
_cell_length_c                       10.2822
_cell_angle_alpha                   90.4142
_cell_angle_beta                    90.5877
_cell_angle_gamma                   90.6183

loop_
_atom_site_label
_atom_site_type_symbol
_atom_site_fract_x
_atom_site_fract_y
_atom_site_fract_z
_atom_site_charge
  Ge     Ge        0.052090000000021    0.000000000000000    0.372269999999958  0.0000
  Ge     Ge        0.545859593660996    0.978675021922699    0.618699990323561  0.0000
  Ge     Ge        0.825676901418387    0.744178872654075    0.025906054742818  0.0000
  Ge     Ge        0.849364640619165    0.333884632007622    0.036635793924374  0.0000
  Si     Si        0.451844042968016    0.998706130108391    0.349164231785150  0.0000
  Si     Si        0.945071277705845    0.005696719581729    0.628072401546125  0.0000
  Si     Si        0.549277648249861    0.995387383357646    0.091625144002395  0.0000
  Si     Si        0.942861090862249    0.020086541724700    0.120406492665183  0.0000
  Si     Si        0.432615576574500    0.997705326649846    0.858690207527572  0.0000
  Si     Si        0.047573801330961    0.993232454282896    0.878856198531571  0.0000
  Si     Si        0.157696694524410    0.306757604320138    0.286185558735743  0.0000
  Si     Si        0.347036324746173    0.689552977556598    0.274287378779383  0.0000
  Si     Si        0.846135479847020    0.311861884556578    0.728041613544033  0.0000
  Si     Si        0.651086635170668    0.671376625769320    0.711687531266182  0.0000
  Si     Si        0.828328322536882    0.718674818197294    0.717494786440220  0.0000
  Si     Si        0.669244805640073    0.269723702954996    0.722420515021688  0.0000
  Si     Si        0.167745596044723    0.712794100466745    0.286497309264770  0.0000
  Si     Si        0.337377044466318    0.286694069025302    0.273346650299686  0.0000
  Si     Si        0.667008078319741    0.283900847211140    0.026506545091201  0.0000
  Si     Si        0.327163538550222    0.286541427787173    0.970119685512008  0.0000
  Si     Si        0.158240894488799    0.708291666454531    0.985114465603986  0.0000
  Si     Si        0.338011973339256    0.687222398158840    0.971206605629104  0.0000
  Si     Si        0.147244800723516    0.303758809874120    0.985504552229559  0.0000
  Si     Si        0.645326662898821    0.679322148250062    0.015926623548755  0.0000
  O3     O3        0.102800469381874    0.196925930851848    0.378549192891529  0.0000
  O2     O2        0.406029051243938    0.811794167736030    0.357043644001420  0.0000
  O2     O2        0.905829893345395    0.196398504329780    0.644184426376763  0.0000
  O3     O3        0.587495874489825    0.773932612459692    0.630146430927936  0.0000
  O2     O2        0.881244125776518    0.848749526028817    0.632383397161921  0.0000
  O3     O3        0.618978939240344    0.130793482262704    0.643464311719088  0.0000
  O3     O3        0.120093171899077    0.834499131973033    0.381545629798435  0.0000
  O2     O2        0.389253610585613    0.155767447665605    0.357909354154334  0.0000
  O3     O3        0.982875889118508    0.994838786193451    0.488608406319211  0.0000
  O3     O3        0.514196654880213    0.011419368020965    0.461927441017884  0.0000
  O3     O3        0.002635278431026    0.965328474777323    0.228667793771784  0.0000
  O2     O2        0.493949415621265    0.017436530720162    0.212234710319164  0.0000
  O2     O2        0.014222421692042    0.980724712792829    0.733372702658299  0.0000
  O3     O3        0.465258964287872    0.001718681627722    0.715086232430325  0.0000
  O2     O2        0.618729487294814    0.138542919999866    0.105189975904174  0.0000
  O3     O3        0.862920768356329    0.908733463190561    0.122716171496078  0.0000
  O2     O2        0.369984809904851    0.151733250417764    0.876082588888667  0.0000
  O2     O2        0.109382476325593    0.837371420552394    0.894891168890748  0.0000
  O2     O2        0.391778180189176    0.808715939988331    0.882504909200526  0.0000
  O2     O2        0.088752423254513    0.183744673974574    0.900247304025014  0.0000
  O2     O2        0.582596862466394    0.797871136329199    0.090092252928769  0.0000
  O3     O3        0.917556810469481    0.221716757322705    0.127842237686558  0.0000
  O2     O2        0.504117515372545    0.032448382438375    0.957337436749462  0.0000
  O2     O2        0.978142807314624    0.966521724425407    0.979387709198785  0.0000
  O2     O2        0.142469346807833    0.511632538219640    0.309656056148728  0.0000
  O2     O2        0.365031412172141    0.486321597664732    0.303595898756581  0.0000
  O2     O2        0.862184683549722    0.520723577978922    0.710439808567003  0.0000
  O2     O2        0.635377139776950    0.463449313839031    0.695921993096084  0.0000
  O2     O2        0.247764020528664    0.261847601320152    0.313660235526763  0.0000
  O2     O2        0.259514840616524    0.735177610617325    0.315300161827327  0.0000
  O2     O2        0.758968443187621    0.265080461540737    0.677899447816308  0.0000
  O2     O2        0.738909250173124    0.718269427671456    0.665655289981923  0.0000
  O2     O2        0.135961811278235    0.253864791541006    0.136640120155586  0.0000
  O2     O2        0.357749031631128    0.728850371110708    0.121618907247064  0.0000
  O3     O3        0.857747474227134    0.263172925281312    0.877165185865985  0.0000
  O2     O2        0.642661420465708    0.727081775275926    0.862954925754003  0.0000
  O3     O3        0.829996955597186    0.791406590621211    0.862847612010229  0.0000
  O2     O2        0.668361616366126    0.226205490733223    0.875373290470848  0.0000
  O2     O2        0.150243692295267    0.763944236791547    0.136108078794822  0.0000
  O2     O2        0.345650260837917    0.243322593880431    0.120289952001535  0.0000
  O2     O2        0.625449446326060    0.473708807231721    0.039265818423867  0.0000
  O1     O1        0.871813605141138    0.549768117037846    0.055047935620538  0.0000
  O2     O2        0.355802110627667    0.484159808125564    0.937998743771280  0.0000
  O2     O2        0.127433732411931    0.508393456643718    0.963429392069223  0.0000
  O3     O3        0.753782975163064    0.295313784481871    0.082093315456836  0.0000
  O3     O3        0.730131220736585    0.719086284664875    0.071684618209615  0.0000
  O2     O2        0.235235176782410    0.267245871212025    0.942932875003179  0.0000
  O2     O2        0.247665868121274    0.724972442837761    0.942450839875031  0.0000
