data_c00151.vasp
_audit_creation_method             Generated by GULP
_audit_author_name                 Salvador R. G. Balestra
_symmetry_space_group_name_H-M     'P 1             '
_symmetry_Int_Tables_number        1

loop_
_symmetry_equiv_pos_site_id
_symmetry_equiv_pos_as_xyz
_cell_length_a                       17.3327
_cell_length_b                        7.6440
_cell_length_c                       10.1809
_cell_angle_alpha                   90.1331
_cell_angle_beta                    90.8118
_cell_angle_gamma                   89.4080

loop_
_atom_site_label
_atom_site_type_symbol
_atom_site_fract_x
_atom_site_fract_y
_atom_site_fract_z
_atom_site_charge
  Ge     Ge        0.052090000000021    0.000000000000000    0.372269999999958  0.0000
  Ge     Ge        0.553709661453585    0.981173937766056    0.643815417069672  0.0000
  Ge     Ge        0.160727545314652    0.301260538944203    0.288521611453781  0.0000
  Ge     Ge        0.177520296594662    0.720284702261463    0.283707380799364  0.0000
  Si     Si        0.458898875528038    0.970600986142732    0.374298696145142  0.0000
  Si     Si        0.950843230312582    0.976948392588429    0.626602659006293  0.0000
  Si     Si        0.563562226998964    0.981286891925936    0.136278901212749  0.0000
  Si     Si        0.951550275046210    0.971063145367201    0.106265229769189  0.0000
  Si     Si        0.446786751304069    0.970313991938199    0.901695506677198  0.0000
  Si     Si        0.061218585563675    0.987594986462707    0.866239924072600  0.0000
  Si     Si        0.356137063843281    0.665736307842864    0.278463112183182  0.0000
  Si     Si        0.845712148634680    0.279079545886564    0.725968844502346  0.0000
  Si     Si        0.666563611580677    0.680650238104489    0.722449638344737  0.0000
  Si     Si        0.843988384142086    0.679404817215909    0.727824955809899  0.0000
  Si     Si        0.667925553958633    0.274812822727051    0.720936261807510  0.0000
  Si     Si        0.341382246644716    0.265629686290454    0.281567368627151  0.0000
  Si     Si        0.667389303063438    0.273930551292111    0.025608652676796  0.0000
  Si     Si        0.842332575570723    0.675166720273661    0.035994245793313  0.0000
  Si     Si        0.334374331753585    0.266267448227142    0.971122870699883  0.0000
  Si     Si        0.170827190099092    0.698222528412239    0.972972500860502  0.0000
  Si     Si        0.346950266267811    0.659534780842725    0.967908285990101  0.0000
  Si     Si        0.158007155667620    0.291867090170450    0.978066879482667  0.0000
  Si     Si        0.664501533134843    0.677763906944995    0.027737376197032  0.0000
  Si     Si        0.845920328659075    0.278057010250573    0.033820116891484  0.0000
  O1     O1        0.092926443987451    0.201078109647971    0.381062481036730  0.0000
  O2     O2        0.422237021052723    0.781336547732483    0.346031109098583  0.0000
  O2     O2        0.900578222006869    0.153140659906446    0.643490500840896  0.0000
  O3     O3        0.610861921480395    0.795500858427738    0.633012739067483  0.0000
  O2     O2        0.899888940955302    0.806322972139692    0.651177437791997  0.0000
  O3     O3        0.613665513579881    0.159651178920050    0.630506147465632  0.0000
  O1     O1        0.129917765777259    0.860448986384486    0.383374749572687  0.0000
  O2     O2        0.397360429722205    0.125941315622558    0.350556231469690  0.0000
  O3     O3        0.978497365887243    0.967492488666317    0.479029231982501  0.0000
  O3     O3        0.483860623077180    0.980797093713190    0.524463521301346  0.0000
  O3     O3        0.014982183942831    0.958066617528124    0.216631621430231  0.0000
  O2     O2        0.534947418669326    0.991472872104408    0.285683592355091  0.0000
  O2     O2        0.027423444912376    0.982609364293397    0.718380541699261  0.0000
  O3     O3        0.508329962786123    0.991729302756725    0.791730218715673  0.0000
  O2     O2        0.616743049750081    0.149283802533033    0.114581553685003  0.0000
  O2     O2        0.894296455556858    0.806499888115339    0.120014313796978  0.0000
  O2     O2        0.381903228012370    0.122798230626211    0.890398905440031  0.0000
  O2     O2        0.121294239937139    0.825901676337303    0.878270873739901  0.0000
  O2     O2        0.404693933585071    0.782610217139790    0.888841064906945  0.0000
  O2     O2        0.101167867232766    0.175990663608335    0.887332332826555  0.0000
  O2     O2        0.610933166523583    0.800982508705038    0.115862333184513  0.0000
  O2     O2        0.900618819016735    0.149723120968819    0.118702454164228  0.0000
  O2     O2        0.488536512036942    0.987250340454212    0.043159835646509  0.0000
  O2     O2        0.991107012424484    0.963168066517407    0.964635438879481  0.0000
  O1     O1        0.141448033819091    0.516525840408782    0.305450120102076  0.0000
  O2     O2        0.372708798353995    0.461310203254883    0.309962681942744  0.0000
  O2     O2        0.865916079699884    0.479331498516950    0.691809269952143  0.0000
  O2     O2        0.647805627779424    0.477983610019123    0.698976963728511  0.0000
  O3     O3        0.255378151442728    0.249859621716777    0.334256120090019  0.0000
  O3     O3        0.273664512810494    0.721072358829496    0.331724636020119  0.0000
  O2     O2        0.757365927533141    0.239498266466819    0.687061806267499  0.0000
  O2     O2        0.755372412885009    0.718726829860522    0.686904191142591  0.0000
  O3     O3        0.148893732092978    0.231789625840450    0.126629578675116  0.0000
  O2     O2        0.354722119496088    0.698075070239328    0.122288323710265  0.0000
  O2     O2        0.859553200841477    0.243167129069113    0.880025068537670  0.0000
  O2     O2        0.652295763909611    0.730352480192953    0.875409361239183  0.0000
  O2     O2        0.854197181507272    0.710998005443419    0.882531692609815  0.0000
  O2     O2        0.654418080855541    0.223143917081829    0.873299270231601  0.0000
  O3     O3        0.167707091141402    0.773785221069749    0.118817803274634  0.0000
  O2     O2        0.339311272195050    0.229552536499773    0.125903576245350  0.0000
  O2     O2        0.642089351447550    0.475442983474090    0.049786055873406  0.0000
  O2     O2        0.867798151849748    0.476778707322459    0.071273766279728  0.0000
  O2     O2        0.368554960785878    0.457386524846841    0.937793386260930  0.0000
  O2     O2        0.137913665104378    0.499729137067814    0.967490591030050  0.0000
  O2     O2        0.756693986725693    0.245139407855612    0.066522268101385  0.0000
  O2     O2        0.753059245711110    0.706060967781302    0.071350726961729  0.0000
  O2     O2        0.244919492283616    0.258695794562329    0.927406747880607  0.0000
  O2     O2        0.258887020667752    0.697283364135605    0.922701498896032  0.0000
