data_c00142.vasp
_audit_creation_method             Generated by GULP
_audit_author_name                 Salvador R. G. Balestra
_symmetry_space_group_name_H-M     'P 1             '
_symmetry_Int_Tables_number        1

loop_
_symmetry_equiv_pos_site_id
_symmetry_equiv_pos_as_xyz
_cell_length_a                       17.3219
_cell_length_b                        7.6342
_cell_length_c                       10.1310
_cell_angle_alpha                   90.2490
_cell_angle_beta                    89.6921
_cell_angle_gamma                   89.5351

loop_
_atom_site_label
_atom_site_type_symbol
_atom_site_fract_x
_atom_site_fract_y
_atom_site_fract_z
_atom_site_charge
  Ge     Ge        0.052090000000021    0.000000000000000    0.372269999999958  0.0000
  Ge     Ge        0.551525115409185    0.009416169531749    0.616160799477672  0.0000
  Ge     Ge        0.941109216614058    0.007698046061039    0.110295401528032  0.0000
  Ge     Ge        0.644456260544596    0.335269180212179    0.030129052387160  0.0000
  Si     Si        0.448464485194215    0.998717134968790    0.354965908147272  0.0000
  Si     Si        0.949318586711004    0.992135215593328    0.631051936763979  0.0000
  Si     Si        0.546475008021450    0.021897954831407    0.099429215194943  0.0000
  Si     Si        0.436071349274783    0.006658866648797    0.859061035721199  0.0000
  Si     Si        0.054797270927510    0.006931123349773    0.870198507762104  0.0000
  Si     Si        0.166485880840471    0.288245590418372    0.288799658085301  0.0000
  Si     Si        0.336750711684032    0.708678756864677    0.284286126171164  0.0000
  Si     Si        0.834022187194489    0.285507917098871    0.736748347711331  0.0000
  Si     Si        0.669947256223989    0.720012269818014    0.715079198915650  0.0000
  Si     Si        0.846802265663914    0.689905412807769    0.729633156101173  0.0000
  Si     Si        0.657938868703846    0.312192763127536    0.718715091390571  0.0000
  Si     Si        0.158577692838331    0.692314397793955    0.295793610675758  0.0000
  Si     Si        0.345684094176054    0.307345328384844    0.277222098026204  0.0000
  Si     Si        0.839972569932544    0.694339497984053    0.036358966548752  0.0000
  Si     Si        0.340094170021070    0.315241472898498    0.970466357232588  0.0000
  Si     Si        0.152469054996341    0.699967735512510    0.988860684082591  0.0000
  Si     Si        0.330809287428610    0.715191637722822    0.975496942037951  0.0000
  Si     Si        0.160843760966406    0.296697414282623    0.982872203990880  0.0000
  Si     Si        0.661948148339161    0.738840336454436    0.020875007855598  0.0000
  Si     Si        0.824057079353345    0.298887238128134    0.046161077554791  0.0000
  O3     O3        0.119346334770315    0.166492503478736    0.385143260243177  0.0000
  O2     O2        0.388197385985072    0.838767756813567    0.371481761288433  0.0000
  O2     O2        0.890218324165701    0.150253895415706    0.662858473912222  0.0000
  O3     O3        0.617794204507886    0.840091117348792    0.624734231519562  0.0000
  O2     O2        0.907609612234683    0.804689372719793    0.647765143423741  0.0000
  O3     O3        0.599968915985273    0.204762013971265    0.628724557936915  0.0000
  O3     O3        0.102783896869182    0.804556719599304    0.387660021327418  0.0000
  O2     O2        0.401396935832133    0.183060793838379    0.361833598069160  0.0000
  O3     O3        0.976505261821273    0.010963284565288    0.481691604769791  0.0000
  O3     O3        0.515299099445196    0.996469888658328    0.458873957557349  0.0000
  O1     O1        0.013070904969647    0.022704102189349    0.219558235990410  0.0000
  O2     O2        0.486807993963238    0.971701611604463    0.211753119390573  0.0000
  O2     O2        0.027626434033547    0.000954758234876    0.717835026199399  0.0000
  O3     O3        0.470228365344520    0.992170025115531    0.713999022800613  0.0000
  O3     O3        0.576721180584001    0.217728865333836    0.116847569387446  0.0000
  O3     O3        0.894705708925487    0.808670010898292    0.125452152489227  0.0000
  O2     O2        0.392165925892902    0.193312993826980    0.876378185350219  0.0000
  O2     O2        0.094873366108172    0.821624619878350    0.906612953797118  0.0000
  O2     O2        0.376741005640488    0.849065991339667    0.884568701273247  0.0000
  O2     O2        0.113733069523956    0.167554343517099    0.889047956188555  0.0000
  O2     O2        0.620885130368481    0.892590877493065    0.103778560235173  0.0000
  O3     O3        0.871636624495261    0.168136774260462    0.135183222578017  0.0000
  O2     O2        0.507916198759326    0.993465647273454    0.957151381538558  0.0000
  O3     O3        0.978703433214938    0.038288671993226    0.954398521110689  0.0000
  O2     O2        0.142299535621919    0.488418921586685    0.318283716849775  0.0000
  O2     O2        0.363575091477229    0.509224613193008    0.312016787892444  0.0000
  O2     O2        0.864286990101079    0.482893988217183    0.710425526706468  0.0000
  O2     O2        0.643334381478992    0.519383645507194    0.700691391722833  0.0000
  O2     O2        0.257648387394894    0.262525884446846    0.312609079154840  0.0000
  O2     O2        0.247781719435027    0.734481597957282    0.326696037229485  0.0000
  O2     O2        0.747173297852401    0.266183833108847    0.681118765163173  0.0000
  O2     O2        0.760659451397965    0.733741890395199    0.678288737291792  0.0000
  O2     O2        0.147987144386649    0.242924346922539    0.135288092293223  0.0000
  O2     O2        0.345855585236285    0.752934179374454    0.129427378176443  0.0000
  O2     O2        0.830514104180619    0.243086387825072    0.891819661180893  0.0000
  O2     O2        0.658202011534672    0.784343372861049    0.865668231326001  0.0000
  O2     O2        0.855024367076255    0.742795010194074    0.882876556114921  0.0000
  O3     O3        0.640614894578268    0.261851294276688    0.869067734242566  0.0000
  O2     O2        0.140571920795522    0.743609832125790    0.143437816039592  0.0000
  O2     O2        0.360912048555813    0.272221233914227    0.121850756891584  0.0000
  O3     O3        0.621451678039698    0.554273248485978    0.045216746922809  0.0000
  O2     O2        0.859880289537652    0.492209987969481    0.062812973902259  0.0000
  O2     O2        0.358476124949642    0.517840838601392    0.939258364373458  0.0000
  O2     O2        0.132483607328358    0.496747676533265    0.960611086134948  0.0000
  O3     O3        0.735718810099637    0.299796745241828    0.090780622843092  0.0000
  O2     O2        0.750088383860946    0.729228256644813    0.069395391940081  0.0000
  O2     O2        0.250487747328048    0.277765183985318    0.944205934249154  0.0000
  O2     O2        0.240162035222192    0.738032509622659    0.945327084934065  0.0000
