data_c00138.vasp
_audit_creation_method             Generated by GULP
_audit_author_name                 Salvador R. G. Balestra
_symmetry_space_group_name_H-M     'P 1             '
_symmetry_Int_Tables_number        1

loop_
_symmetry_equiv_pos_site_id
_symmetry_equiv_pos_as_xyz
_cell_length_a                       17.4428
_cell_length_b                        7.6680
_cell_length_c                       10.0216
_cell_angle_alpha                   90.3588
_cell_angle_beta                    90.1515
_cell_angle_gamma                   89.7624

loop_
_atom_site_label
_atom_site_type_symbol
_atom_site_fract_x
_atom_site_fract_y
_atom_site_fract_z
_atom_site_charge
  Ge     Ge        0.052090000000021    0.000000000000000    0.372269999999958  0.0000
  Ge     Ge        0.552759067422228    0.991599703224316    0.642462611170890  0.0000
  Ge     Ge        0.942753846354356    0.989795941348946    0.106693565733108  0.0000
  Ge     Ge        0.163481783592905    0.301328576179732    0.295189048101054  0.0000
  Si     Si        0.451287541175038    0.994720015748492    0.380094400155158  0.0000
  Si     Si        0.948061175853208    0.986685857883796    0.625708449906983  0.0000
  Si     Si        0.553376360603822    0.993027116242434    0.134611070286098  0.0000
  Si     Si        0.440969772870367    0.990781103624064    0.897368623796599  0.0000
  Si     Si        0.056143520381743    0.995441472332188    0.863673357962599  0.0000
  Si     Si        0.345213983039254    0.694091258738864    0.277679442813164  0.0000
  Si     Si        0.841865478358455    0.286927543289634    0.731239131956886  0.0000
  Si     Si        0.665193890116944    0.692096942929623    0.714097774377170  0.0000
  Si     Si        0.841676375048306    0.690295668919903    0.732040132932497  0.0000
  Si     Si        0.665264942626155    0.288626423811795    0.713709702874853  0.0000
  Si     Si        0.167728312004382    0.710838380092987    0.289697150434321  0.0000
  Si     Si        0.342525848561380    0.294839720047069    0.282591041057493  0.0000
  Si     Si        0.655649815803539    0.290714894439301    0.023743549397210  0.0000
  Si     Si        0.832444870953430    0.689277552011846    0.043097921109752  0.0000
  Si     Si        0.333477530686187    0.292443092042115    0.966909353996588  0.0000
  Si     Si        0.160968491153180    0.699930600320809    0.979013401195368  0.0000
  Si     Si        0.337811551246788    0.687729482186819    0.965281971576127  0.0000
  Si     Si        0.157495218480024    0.295141741977418    0.977904576643070  0.0000
  Si     Si        0.655882550313847    0.692009339831820    0.024312379519283  0.0000
  Si     Si        0.832440166437033    0.290693720795353    0.042172190274264  0.0000
  O1     O1        0.102249290656177    0.189071715849878    0.393617887037254  0.0000
  O2     O2        0.400743934210361    0.822392805525591    0.357106610686254  0.0000
  O2     O2        0.898319225519976    0.161597805323247    0.649417403946481  0.0000
  O3     O3        0.611254636075030    0.810045022222082    0.624625843387039  0.0000
  O2     O2        0.898758214578713    0.813634755422151    0.652266913985933  0.0000
  O3     O3        0.612013024052567    0.170168026140771    0.623282891550496  0.0000
  O3     O3        0.120554117841125    0.836574097184889    0.384473363802579  0.0000
  O2     O2        0.402473423074679    0.169187710735345    0.354567764876816  0.0000
  O3     O3        0.973490253318737    0.980499716455383    0.473457047181244  0.0000
  O3     O3        0.478598276514056    0.993853358260939    0.530901274582286  0.0000
  O1     O1        0.017129351251116    0.991533688320151    0.212536858394925  0.0000
  O2     O2        0.527354146723998    0.992655847552689    0.288322753200636  0.0000
  O2     O2        0.027748869850007    0.990379711650348    0.709569355997427  0.0000
  O3     O3        0.509310374471960    0.995459147736477    0.795811434730235  0.0000
  O2     O2        0.602371027911566    0.166887822025878    0.110498148073109  0.0000
  O3     O3        0.884561532175276    0.810193095999564    0.132511790559309  0.0000
  O2     O2        0.385006992491264    0.158354785924557    0.882493634188169  0.0000
  O2     O2        0.108638586264409    0.825315199748772    0.889958008525677  0.0000
  O2     O2        0.389996870136401    0.815873147051485    0.878121881948375  0.0000
  O2     O2        0.102432203589616    0.174704019009962    0.887949784339721  0.0000
  O2     O2        0.602220773608528    0.817911937185729    0.110329112151147  0.0000
  O3     O3        0.883899033414413    0.170002970180283    0.132470891115114  0.0000
  O2     O2        0.477238354078878    0.993959800010350    0.045349084152564  0.0000
  O3     O3        0.979279056612389    0.989387331890587    0.947480743648881  0.0000
  O3     O3        0.140774422410871    0.516732933504368    0.316334592481561  0.0000
  O2     O2        0.367200685052950    0.494790380931046    0.311967426474952  0.0000
  O2     O2        0.864052444087919    0.488318344801512    0.704377166085774  0.0000
  O2     O2        0.645928490422943    0.490346609785821    0.687062722506084  0.0000
  O3     O3        0.258088061668458    0.261600312394913    0.337012794823591  0.0000
  O2     O2        0.258049057290255    0.730666733203660    0.321577245096545  0.0000
  O2     O2        0.754830497209126    0.252746469526141    0.683439976105810  0.0000
  O2     O2        0.754761186644297    0.726048483781325    0.683303231597678  0.0000
  O3     O3        0.148586343725078    0.239887492119516    0.129970866187416  0.0000
  O2     O2        0.353194583992359    0.727198282854010    0.120460039461721  0.0000
  O2     O2        0.849351974645503    0.243450333179815    0.887336891397892  0.0000
  O2     O2        0.648157358074566    0.741108694119329    0.868859624696133  0.0000
  O2     O2        0.848502506272901    0.734862640499863    0.888314779733280  0.0000
  O2     O2        0.647622298142856    0.240734930751823    0.868045453899294  0.0000
  O2     O2        0.152695080651828    0.756397120209194    0.133364017276568  0.0000
  O2     O2        0.341984946382215    0.259402028457936    0.124113435783387  0.0000
  O2     O2        0.630603990525247    0.491823332613108    0.047037654436979  0.0000
  O2     O2        0.854958851171712    0.489917279727924    0.072138351995076  0.0000
  O2     O2        0.360088936606330    0.488130656108891    0.930221180990345  0.0000
  O2     O2        0.134265317837437    0.499196052192505    0.960875194144631  0.0000
  O2     O2        0.742710507968534    0.262194618031909    0.071635253431521  0.0000
  O2     O2        0.742750694077958    0.719456278673766    0.073493574769558  0.0000
  O2     O2        0.244648850479040    0.267007736424689    0.927827872527955  0.0000
  O2     O2        0.248616556272291    0.720568668360789    0.931707396775006  0.0000
