data_c00130.vasp
_audit_creation_method             Generated by GULP
_audit_author_name                 Salvador R. G. Balestra
_symmetry_space_group_name_H-M     'P 1             '
_symmetry_Int_Tables_number        1

loop_
_symmetry_equiv_pos_site_id
_symmetry_equiv_pos_as_xyz
_cell_length_a                       17.4096
_cell_length_b                        7.6622
_cell_length_c                       10.0361
_cell_angle_alpha                   89.4225
_cell_angle_beta                    90.5685
_cell_angle_gamma                   89.3454

loop_
_atom_site_label
_atom_site_type_symbol
_atom_site_fract_x
_atom_site_fract_y
_atom_site_fract_z
_atom_site_charge
  Ge     Ge        0.052090000000021    0.000000000000000    0.372269999999958  0.0000
  Ge     Ge        0.551259959195386    0.012849490961942    0.660438164655370  0.0000
  Ge     Ge        0.556510575092996    0.007145009507924    0.151900770906615  0.0000
  Ge     Ge        0.348427552119487    0.679591243566190    0.299420873629304  0.0000
  Si     Si        0.451979926383764    0.983415006002252    0.400154660373756  0.0000
  Si     Si        0.949018140053120    0.001804231076143    0.629960640703997  0.0000
  Si     Si        0.945688358461530    0.995967633529782    0.111481972006865  0.0000
  Si     Si        0.440572522416756    0.999635730244537    0.911985635897006  0.0000
  Si     Si        0.056070828334410    0.012550421586035    0.873650629263137  0.0000
  Si     Si        0.160450468718449    0.300160471360168    0.293887934220117  0.0000
  Si     Si        0.841481268333783    0.302480408438944    0.729950280814106  0.0000
  Si     Si        0.666336180286641    0.713927542779445    0.725759062057839  0.0000
  Si     Si        0.843098868631620    0.701420304048891    0.729679465760478  0.0000
  Si     Si        0.664624738848716    0.306834812254150    0.726538021032296  0.0000
  Si     Si        0.167867059090276    0.706666013239418    0.301738946225852  0.0000
  Si     Si        0.337035280404359    0.275848752888138    0.288914043997140  0.0000
  Si     Si        0.662204390352446    0.304255996284711    0.034175000637360  0.0000
  Si     Si        0.840635726582434    0.695761823717254    0.042940709510489  0.0000
  Si     Si        0.331739147776267    0.299523942861933    0.973196535827497  0.0000
  Si     Si        0.162402651801246    0.715506533456013    0.990602693704579  0.0000
  Si     Si        0.340537122504836    0.692300748097787    0.978464048339722  0.0000
  Si     Si        0.154573553034968    0.313133732649712    0.983805771542680  0.0000
  Si     Si        0.663873026485502    0.709431831427699    0.033624113683168  0.0000
  Si     Si        0.839217418308586    0.300453074387093    0.043327258843825  0.0000
  O3     O3        0.105019632149743    0.188857254223160    0.384437130845031  0.0000
  O3     O3        0.416927920910665    0.792036665225651    0.385512141077693  0.0000
  O2     O2        0.896511615419335    0.173049197034851    0.650874801349226  0.0000
  O3     O3        0.610482047513732    0.832239034638120    0.636942860670671  0.0000
  O2     O2        0.900049623217412    0.827530266151926    0.652480683469187  0.0000
  O3     O3        0.607942820183007    0.195207175193529    0.638258089686729  0.0000
  O3     O3        0.113338495811411    0.822444609768811    0.392152763852658  0.0000
  O2     O2        0.385973951067938    0.119851874901080    0.353403630216767  0.0000
  O3     O3        0.976849421093468    0.000498109842122    0.480040615739719  0.0000
  O3     O3        0.474675721580232    0.015271606240911    0.552402341608250  0.0000
  O3     O3        0.013401499377996    0.990416075499988    0.214838967861269  0.0000
  O3     O3        0.529301566828143    0.005230872678222    0.316534705566158  0.0000
  O2     O2        0.026173065169321    0.004809825323173    0.721451117064746  0.0000
  O3     O3        0.512187757362578    0.009483714700817    0.817170601316655  0.0000
  O3     O3        0.608196713724588    0.194598828196745    0.127444410338329  0.0000
  O2     O2        0.893811005088849    0.823416334182577    0.127527275067018  0.0000
  O2     O2        0.381892801948972    0.163655753048078    0.889207480200619  0.0000
  O2     O2        0.113020184769441    0.849116981895172    0.900551449028449  0.0000
  O2     O2        0.392740304305505    0.821372974545841    0.890806753884370  0.0000
  O2     O2        0.098985731498935    0.196243425075014    0.894033705963518  0.0000
  O3     O3        0.611322112893750    0.822332296068623    0.126990302315934  0.0000
  O2     O2        0.891305172890002    0.166732261965446    0.129454543988859  0.0000
  O3     O3        0.472758707998787    0.005801295842083    0.061826673917091  0.0000
  O2     O2        0.981399018208909    0.000658606590562    0.964256992893919  0.0000
  O2     O2        0.149242236591985    0.503562381194683    0.324369043420261  0.0000
  O3     O3        0.363182978647648    0.461741872033171    0.341086995887526  0.0000
  O2     O2        0.863252443513756    0.501405935143853    0.692572091137248  0.0000
  O2     O2        0.646266079285731    0.511427618553133    0.706575775777244  0.0000
  O2     O2        0.248291865456708    0.243306893933470    0.324749181796403  0.0000
  O3     O3        0.255874249719733    0.740333683892378    0.338804612992370  0.0000
  O2     O2        0.753169627771094    0.267925218292301    0.688884995267826  0.0000
  O2     O2        0.755144377103939    0.745334633930832    0.687763184211189  0.0000
  O2     O2        0.141902255736550    0.262638209755754    0.138148894848433  0.0000
  O3     O3        0.362269396497823    0.714455093764547    0.131875078747682  0.0000
  O2     O2        0.852279724209913    0.269213624648973    0.887068781613577  0.0000
  O2     O2        0.652793319198401    0.770061328432625    0.879581936192650  0.0000
  O2     O2        0.853432890638398    0.729048335126084    0.886719337129855  0.0000
  O2     O2        0.650695558501323    0.248076044529464    0.880345264770498  0.0000
  O2     O2        0.152388513333070    0.758406760340320    0.146184209952142  0.0000
  O2     O2        0.347014517670084    0.274773432360198    0.129858560184338  0.0000
  O2     O2        0.640733937256596    0.507669198563133    0.048871660358639  0.0000
  O2     O2        0.863199194477378    0.496627810194625    0.081734988833214  0.0000
  O2     O2        0.357040361837611    0.494448880135899    0.930990643943051  0.0000
  O2     O2        0.135319721668341    0.518157796679777    0.960261644094394  0.0000
  O2     O2        0.750520139979467    0.269574572334611    0.078037444888404  0.0000
  O2     O2        0.752302832526145    0.733959882648264    0.077961568743896  0.0000
  O2     O2        0.241921148550399    0.272646870415854    0.941253281272575  0.0000
  O2     O2        0.251118544682383    0.738494667285223    0.953152392667334  0.0000
