data_c00115.vasp
_audit_creation_method             Generated by GULP
_audit_author_name                 Salvador R. G. Balestra
_symmetry_space_group_name_H-M     'P 1             '
_symmetry_Int_Tables_number        1

loop_
_symmetry_equiv_pos_site_id
_symmetry_equiv_pos_as_xyz
_cell_length_a                       17.3167
_cell_length_b                        7.6456
_cell_length_c                       10.2317
_cell_angle_alpha                   89.8864
_cell_angle_beta                    90.8820
_cell_angle_gamma                   90.2298

loop_
_atom_site_label
_atom_site_type_symbol
_atom_site_fract_x
_atom_site_fract_y
_atom_site_fract_z
_atom_site_charge
  Ge     Ge        0.052090000000021    0.000000000000000    0.372269999999958  0.0000
  Ge     Ge        0.947318937009397    0.013450325035482    0.636128141598148  0.0000
  Ge     Ge        0.349064726842358    0.691837087565921    0.273247786139415  0.0000
  Ge     Ge        0.847095851362423    0.334459381427977    0.016463263781124  0.0000
  Si     Si        0.456231862435554    0.996660529986476    0.351532888884895  0.0000
  Si     Si        0.548079116057084    0.004562823455220    0.615917008122546  0.0000
  Si     Si        0.556900796338513    0.012078154967521    0.096024563591425  0.0000
  Si     Si        0.942921309890707    0.024332666942373    0.127751556888279  0.0000
  Si     Si        0.440225810610212    0.005210728155020    0.856868146608921  0.0000
  Si     Si        0.054089144497216    0.005185911150253    0.895101085533490  0.0000
  Si     Si        0.161722074388759    0.301574443704420    0.266819423302910  0.0000
  Si     Si        0.839462730119816    0.318715727121381    0.706555175530012  0.0000
  Si     Si        0.650970708152468    0.699062076339797    0.704657622978008  0.0000
  Si     Si        0.828655630762517    0.725081062934121    0.700144741016979  0.0000
  Si     Si        0.662619208525727    0.298579498360158    0.713636254724907  0.0000
  Si     Si        0.168584712923006    0.707864611811537    0.273840292420090  0.0000
  Si     Si        0.339706155373659    0.280631346335543    0.264080338825859  0.0000
  Si     Si        0.666445006009025    0.310079594198778    0.021530268264689  0.0000
  Si     Si        0.834408395929908    0.740612604597554    0.003158954682362  0.0000
  Si     Si        0.335172638173208    0.297142372425153    0.958207365542568  0.0000
  Si     Si        0.165556821840416    0.711670163018886    0.967579117994204  0.0000
  Si     Si        0.343726685131582    0.697876600018001    0.961433477431429  0.0000
  Si     Si        0.156792520256542    0.312761318015313    0.963063190503780  0.0000
  Si     Si        0.655598554297496    0.704455604325006    0.009246932840919  0.0000
  O3     O3        0.104151969829805    0.190199343292757    0.351233323182057  0.0000
  O3     O3        0.416040385854533    0.809249824453765    0.362580362373450  0.0000
  O3     O3        0.896749614364296    0.207876766212707    0.619751539008143  0.0000
  O2     O2        0.591786977633742    0.818384800238814    0.622287695406093  0.0000
  O3     O3        0.880563538529992    0.845459620539559    0.611069340082930  0.0000
  O2     O2        0.608463266133739    0.160836971046871    0.640033333825333  0.0000
  O3     O3        0.110663169795708    0.820794954157004    0.356308115690326  0.0000
  O2     O2        0.388091828881618    0.139768330069039    0.346222977280703  0.0000
  O1     O1        0.020594042545568    0.002211821831051    0.529389454179333  0.0000
  O2     O2        0.513168272244072    0.031367521811640    0.472478664852863  0.0000
  O3     O3        0.969735551974547    0.991218773365064    0.275155295465466  0.0000
  O2     O2        0.505191636571059    0.013819757967048    0.221552560397297  0.0000
  O3     O3        0.987290171403196    0.989933099290499    0.790491163227160  0.0000
  O2     O2        0.477649398154837    0.010648366862731    0.715446334460689  0.0000
  O2     O2        0.615427596243129    0.175594550245253    0.103703739490061  0.0000
  O2     O2        0.873750707572545    0.892478342322314    0.088070920534447  0.0000
  O2     O2        0.380527591870379    0.165721350498879    0.865714519434353  0.0000
  O2     O2        0.114481959454431    0.845469872110323    0.882693129298721  0.0000
  O2     O2        0.396284426152813    0.820257726337005    0.870985391373725  0.0000
  O2     O2        0.100125205342771    0.189532379171494    0.877407102898310  0.0000
  O2     O2        0.603981867989689    0.830902203902736    0.095702815450582  0.0000
  O3     O3        0.911642887051719    0.220232623636050    0.112079175069126  0.0000
  O2     O2        0.506057179714593    0.030321530246389    0.965648503321873  0.0000
  O2     O2        0.017523871786530    0.993531076803633    0.038822173201277  0.0000
  O2     O2        0.146994771354966    0.504952940632059    0.294292731752412  0.0000
  O3     O3        0.367854306806245    0.473632506775987    0.298317509577284  0.0000
  O2     O2        0.855551359750108    0.524604197851327    0.687879434767050  0.0000
  O2     O2        0.632532321316881    0.494325084634165    0.681027232434056  0.0000
  O2     O2        0.250365374058465    0.255713795625514    0.302648088284552  0.0000
  O3     O3        0.256245702511205    0.740083880453422    0.319428044041825  0.0000
  O2     O2        0.750365696673884    0.276629834420898    0.666133843983466  0.0000
  O2     O2        0.738221877726119    0.740594551473821    0.661014246550007  0.0000
  O2     O2        0.146511687616324    0.259784338593820    0.114020687432300  0.0000
  O3     O3        0.359801690409681    0.746832294679060    0.110633084727668  0.0000
  O3     O3        0.854662020059427    0.266213079270591    0.856958321471391  0.0000
  O2     O2        0.640601787407614    0.746245013487712    0.856677614351880  0.0000
  O2     O2        0.840432190895228    0.788765200460210    0.850063061585355  0.0000
  O2     O2        0.662235268135249    0.262411727177175    0.868157082907581  0.0000
  O2     O2        0.160852079882209    0.757645174959781    0.120481309472119  0.0000
  O2     O2        0.348802302537779    0.245458558513525    0.109242352018204  0.0000
  O2     O2        0.632532373191748    0.505070894147055    0.042245761838542  0.0000
  O3     O3        0.871805749924743    0.553472187764201    0.030566212351171  0.0000
  O2     O2        0.364961879862219    0.495123209880634    0.935376943682770  0.0000
  O2     O2        0.134106294019733    0.515212925326179    0.939974656060414  0.0000
  O3     O3        0.754070641331738    0.301990208603249    0.070028444966713  0.0000
  O2     O2        0.745192565264199    0.733102356978667    0.044694328586692  0.0000
  O2     O2        0.244775622174617    0.282625449204669    0.920858421198776  0.0000
  O2     O2        0.253959148404466    0.728341082964884    0.923737713691155  0.0000
