data_c00175.vasp
_audit_creation_method             Generated by GULP
_audit_author_name                 Salvador R. G. Balestra
_symmetry_space_group_name_H-M     'P 1             '
_symmetry_Int_Tables_number        1

loop_
_symmetry_equiv_pos_site_id
_symmetry_equiv_pos_as_xyz
_cell_length_a                       17.3838
_cell_length_b                        7.6670
_cell_length_c                       10.0262
_cell_angle_alpha                   90.5095
_cell_angle_beta                    89.9136
_cell_angle_gamma                   89.4152

loop_
_atom_site_label
_atom_site_type_symbol
_atom_site_fract_x
_atom_site_fract_y
_atom_site_fract_z
_atom_site_charge
  Ge     Ge        0.052090000000021    0.000000000000000    0.372269999999958  0.0000
  Ge     Ge        0.555471142076286    0.004832692173647    0.648552331791465  0.0000
  Ge     Ge        0.653769933307905    0.311355857811765    0.037733754376685  0.0000
  Ge     Ge        0.340302439006455    0.679901829740464    0.971098039948156  0.0000
  Si     Si        0.447851313047109    0.989033502844564    0.394406295252968  0.0000
  Si     Si        0.950224384559909    0.989129521463280    0.633987338444386  0.0000
  Si     Si        0.552874905117247    0.008330767837597    0.147988120020857  0.0000
  Si     Si        0.942754006712054    0.997884659814699    0.114972604066368  0.0000
  Si     Si        0.446012353164635    0.980710844936290    0.902756997536332  0.0000
  Si     Si        0.055088470933593    0.993103617287883    0.877542880468021  0.0000
  Si     Si        0.163007812090078    0.296303286840363    0.300111170511738  0.0000
  Si     Si        0.343001229943967    0.690674304301791    0.291265367558322  0.0000
  Si     Si        0.839601040720539    0.290637077045831    0.736410315605336  0.0000
  Si     Si        0.669243685943241    0.708763865475575    0.723971807477235  0.0000
  Si     Si        0.846428302747665    0.688885525363679    0.732887342272131  0.0000
  Si     Si        0.664089420950723    0.302882213078375    0.721814395960611  0.0000
  Si     Si        0.166172731231604    0.699567253417485    0.297204286698076  0.0000
  Si     Si        0.340484523875485    0.289192141446648    0.292210647382513  0.0000
  Si     Si        0.840513199257287    0.692767125211614    0.044785885181446  0.0000
  Si     Si        0.335915512390726    0.278164791482518    0.979162925376198  0.0000
  Si     Si        0.159673536517803    0.692553194616907    0.985268937551104  0.0000
  Si     Si        0.157474542688517    0.290568970884138    0.990654040736303  0.0000
  Si     Si        0.662247506517616    0.719283054080934    0.032935394500633  0.0000
  Si     Si        0.833359862445888    0.299140056124878    0.052145310363457  0.0000
  O3     O3        0.108845544722777    0.182759862179834    0.391211755214667  0.0000
  O2     O2        0.398880988125640    0.813788789306663    0.375964148599231  0.0000
  O2     O2        0.895957106112162    0.155298496146194    0.664095705933728  0.0000
  O3     O3        0.616912180284289    0.826684940386977    0.631200336422197  0.0000
  O2     O2        0.903952773519554    0.809918648447295    0.651982312378018  0.0000
  O3     O3        0.609536396703742    0.190885727901346    0.627562209682099  0.0000
  O3     O3        0.112021197836116    0.819993426026917    0.386405970284617  0.0000
  O2     O2        0.395195154521174    0.160681229754364    0.373846213801325  0.0000
  O3     O3        0.977474037612343    0.998449159694493    0.483278335596766  0.0000
  O3     O3        0.478622133025684    0.992829083581579    0.543089456226573  0.0000
  O3     O3        0.011027414625029    0.999158843110860    0.217008487568840  0.0000
  O2     O2        0.522863493751369    0.989663310268989    0.299042554831758  0.0000
  O2     O2        0.027205718586705    0.992027503282556    0.724478161089275  0.0000
  O3     O3        0.515041653377159    0.012537930949353    0.805092370387509  0.0000
  O3     O3        0.588394443902826    0.198034558085206    0.130324358309173  0.0000
  O2     O2        0.891565933817577    0.824088515392905    0.131921531419102  0.0000
  O2     O2        0.381220399765619    0.133021470282547    0.894154289610322  0.0000
  O2     O2        0.102864324693360    0.816149413360625    0.902660665456888  0.0000
  O3     O3        0.401719255562183    0.801665880371242    0.876233618529391  0.0000
  O2     O2        0.106013170786891    0.164742332135171    0.900597177419564  0.0000
  O2     O2        0.619302015397343    0.864137887897448    0.121823163905979  0.0000
  O2     O2        0.887414279930645    0.166864623537830    0.133219087282875  0.0000
  O2     O2        0.480750211712296    0.976354450817005    0.051987251562927  0.0000
  O2     O2        0.978980450911287    0.001175198195263    0.967167181932843  0.0000
  O2     O2        0.143363770511832    0.499551662811627    0.321116871840970  0.0000
  O2     O2        0.364797520931090    0.488753748695834    0.320787885010358  0.0000
  O2     O2        0.867540081734020    0.486412765824386    0.703814843667334  0.0000
  O2     O2        0.645017405136821    0.507759664945241    0.708235257323138  0.0000
  O2     O2        0.252327884353000    0.259959187117144    0.335670350529418  0.0000
  O2     O2        0.255107646607667    0.727934425462626    0.336424704574876  0.0000
  O2     O2        0.753115858629437    0.265448348820125    0.682151604707314  0.0000
  O2     O2        0.759107149103125    0.729162657701930    0.687237835371146  0.0000
  O2     O2        0.147714029072569    0.241172806312491    0.145685831322530  0.0000
  O3     O3        0.352151348954509    0.731819469469139    0.136914857972492  0.0000
  O2     O2        0.837775847936667    0.259296807110137    0.894240767527277  0.0000
  O2     O2        0.655151354584232    0.770736193821746    0.877156720988496  0.0000
  O2     O2        0.854908380406593    0.729834191245441    0.889317281324352  0.0000
  O3     O3        0.649387306944692    0.245146451388250    0.873547474435330  0.0000
  O2     O2        0.156008634291388    0.747074714678910    0.141083314455232  0.0000
  O2     O2        0.349788450416942    0.247916635815684    0.136010951572260  0.0000
  O3     O3        0.628174350069431    0.529478559715184    0.054129182173853  0.0000
  O2     O2        0.863803534288531    0.494855575801116    0.081329988169552  0.0000
  O3     O3        0.365627905124304    0.465959922097419    0.939164681374422  0.0000
  O2     O2        0.132961356509454    0.491662368843965    0.967208149043470  0.0000
  O3     O3        0.746057332991229    0.280955410665300    0.097921401937143  0.0000
  O2     O2        0.750998555235300    0.721336142597272    0.078359045749529  0.0000
  O2     O2        0.245650201510888    0.263555764712418    0.946402297437966  0.0000
  O3     O3        0.245095365836223    0.714214389955424    0.930207755674162  0.0000
