data_c00189.vasp
_audit_creation_method             Generated by GULP
_audit_author_name                 Salvador R. G. Balestra
_symmetry_space_group_name_H-M     'P 1             '
_symmetry_Int_Tables_number        1

loop_
_symmetry_equiv_pos_site_id
_symmetry_equiv_pos_as_xyz
_cell_length_a                       16.8975
_cell_length_b                        7.5713
_cell_length_c                       10.5256
_cell_angle_alpha                   89.9006
_cell_angle_beta                    90.3266
_cell_angle_gamma                   90.5939

loop_
_atom_site_label
_atom_site_type_symbol
_atom_site_fract_x
_atom_site_fract_y
_atom_site_fract_z
_atom_site_charge
  Ge     Ge        0.052090000000021    0.000000000000000    0.372269999999958  0.0000
  Ge     Ge        0.555224929195639    0.972042333012036    0.097839270912717  0.0000
  Ge     Ge        0.938608811543248    0.009013783180432    0.119293046868180  0.0000
  Ge     Ge        0.819727521116627    0.727565537096262    0.004848663040825  0.0000
  Si     Si        0.457337570370026    0.986478189344244    0.352913987963136  0.0000
  Si     Si        0.950200680474191    0.000393343154556    0.629594853808283  0.0000
  Si     Si        0.546936015734186    0.974794953629219    0.617458357856406  0.0000
  Si     Si        0.440669003507091    0.992973994547885    0.862010888892206  0.0000
  Si     Si        0.050727510767287    0.984124128673270    0.883699179175061  0.0000
  Si     Si        0.157490539530455    0.306015397284626    0.270487168963961  0.0000
  Si     Si        0.354256072662247    0.678441733027292    0.255835109190115  0.0000
  Si     Si        0.849434027660540    0.311168467981257    0.705994408513715  0.0000
  Si     Si        0.647848276582254    0.662157582808449    0.702259946882535  0.0000
  Si     Si        0.828077946140081    0.717906981556650    0.703519946199869  0.0000
  Si     Si        0.668117329073742    0.259451050024344    0.701487469452568  0.0000
  Si     Si        0.172283044872650    0.715738971994406    0.263934810057547  0.0000
  Si     Si        0.339953908492743    0.271359161585953    0.257582095051633  0.0000
  Si     Si        0.672432941437542    0.252383029015639    0.997149431764698  0.0000
  Si     Si        0.331111400406577    0.271745435895157    0.962406189541242  0.0000
  Si     Si        0.165467006665335    0.705883463177421    0.970103326168958  0.0000
  Si     Si        0.348977712729359    0.672879079936587    0.961158544220727  0.0000
  Si     Si        0.147268435306973    0.302377226464138    0.977773226639081  0.0000
  Si     Si        0.638155112951691    0.642432275188990    0.000593625209007  0.0000
  Si     Si        0.854788162407355    0.329279159295746    0.999868228376770  0.0000
  O3     O3        0.099848593753827    0.202702358640781    0.362271932754579  0.0000
  O2     O2        0.416200714336242    0.794388607168663    0.336043860673627  0.0000
  O2     O2        0.910250574954070    0.194977680515318    0.623952484641147  0.0000
  O2     O2        0.584601393408311    0.779726092260673    0.625627498990327  0.0000
  O2     O2        0.880555420856006    0.852089450622164    0.618719020445023  0.0000
  O2     O2        0.617672177237979    0.119714627829161    0.619168776505043  0.0000
  O3     O3        0.123121957470000    0.839852241110670    0.353000438470867  0.0000
  O2     O2        0.391814814745394    0.139624315871098    0.341750648281129  0.0000
  O3     O3        0.013198493562180    0.978523343787580    0.521018181777178  0.0000
  O2     O2        0.497782140879243    0.994797941009786    0.489319128789092  0.0000
  O1     O1        0.975306637183694    0.983426534281593    0.268311377231209  0.0000
  O3     O3        0.523597112132440    0.014682450782493    0.248004343599009  0.0000
  O2     O2        0.997862700070068    0.971409311482532    0.759659160347444  0.0000
  O2     O2        0.486250538496809    0.009199267203681    0.730777749126633  0.0000
  O3     O3        0.642082846707633    0.094147093249750    0.081874432119985  0.0000
  O1     O1        0.854195362520940    0.884577330344146    0.104852684058658  0.0000
  O2     O2        0.368967462996226    0.133560911741338    0.865914798440768  0.0000
  O2     O2        0.121252300779539    0.840562315037860    0.877106887877991  0.0000
  O2     O2        0.405504442887081    0.793602198261322    0.874415750098362  0.0000
  O2     O2        0.087254158180309    0.182664232018525    0.895742642348307  0.0000
  O3     O3        0.572093751724708    0.749727616543945    0.073864637498970  0.0000
  O3     O3        0.915225149665861    0.226453073973655    0.088198838166441  0.0000
  O3     O3        0.494542456605271    0.049021733208256    0.979703531719102  0.0000
  O3     O3        0.001435531922747    0.927968460750997    0.005650852545877  0.0000
  O2     O2        0.146679250696486    0.513852782512470    0.290070590655529  0.0000
  O2     O2        0.368023914216649    0.472319122492755    0.284543856135997  0.0000
  O2     O2        0.862898757858299    0.520564083264736    0.685348644565709  0.0000
  O2     O2        0.633129512652842    0.454479116883219    0.675301454940636  0.0000
  O2     O2        0.248239626600320    0.249988125082766    0.295228639372000  0.0000
  O2     O2        0.265851034918309    0.735586340135985    0.291852352932241  0.0000
  O2     O2        0.760378450480753    0.257435811568294    0.662628559617076  0.0000
  O2     O2        0.736249083154171    0.716589440127938    0.658002503488238  0.0000
  O2     O2        0.132663081990004    0.253287876915498    0.125693071072553  0.0000
  O2     O2        0.370210877348562    0.719279417948739    0.107372697633221  0.0000
  O2     O2        0.865393907785551    0.265957765403814    0.853573156557098  0.0000
  O2     O2        0.637161828197143    0.698654483817996    0.851605932023661  0.0000
  O3     O3        0.829430749898250    0.785791381462761    0.846759993715598  0.0000
  O2     O2        0.662877110441122    0.202770366695487    0.848464074503310  0.0000
  O2     O2        0.155206449084476    0.765123206370758    0.116674314823602  0.0000
  O2     O2        0.350628452008794    0.223873934767918    0.109158417857628  0.0000
  O2     O2        0.623208464620280    0.432905037923101    0.019178450299922  0.0000
  O3     O3        0.872383483118598    0.533387164069341    0.018954889203132  0.0000
  O2     O2        0.365065571742382    0.467760686640678    0.932220623538972  0.0000
  O2     O2        0.130000689680755    0.508217600393926    0.951666139483402  0.0000
  O2     O2        0.763322664712611    0.289464622290249    0.034687750940863  0.0000
  O3     O3        0.723652930528021    0.696036759076270    0.052784270398488  0.0000
  O2     O2        0.237195830350173    0.262750532072043    0.940462449563125  0.0000
  O2     O2        0.257490529738162    0.712739611875346    0.933424783210660  0.0000
