data_c00131.vasp
_audit_creation_method             Generated by GULP
_audit_author_name                 Salvador R. G. Balestra
_symmetry_space_group_name_H-M     'P 1             '
_symmetry_Int_Tables_number        1

loop_
_symmetry_equiv_pos_site_id
_symmetry_equiv_pos_as_xyz
_cell_length_a                       17.3847
_cell_length_b                        7.6717
_cell_length_c                       10.1056
_cell_angle_alpha                   89.5925
_cell_angle_beta                    90.7060
_cell_angle_gamma                   89.8372

loop_
_atom_site_label
_atom_site_type_symbol
_atom_site_fract_x
_atom_site_fract_y
_atom_site_fract_z
_atom_site_charge
  Ge     Ge        0.052090000000021    0.000000000000000    0.372269999999958  0.0000
  Ge     Ge        0.545020256498780    0.017671702193560    0.599910532646059  0.0000
  Ge     Ge        0.552733712475499    0.009596026964678    0.076764840841988  0.0000
  Ge     Ge        0.834703613032757    0.298792275790422    0.696248980805541  0.0000
  Si     Si        0.447972114995533    0.002990015568196    0.333161586242611  0.0000
  Si     Si        0.950097714488459    0.005928042005625    0.630859505030111  0.0000
  Si     Si        0.940453171061133    0.998865750481459    0.125796589295536  0.0000
  Si     Si        0.435317255221633    0.006955482889842    0.837981443003089  0.0000
  Si     Si        0.051642648127810    0.010244280375411    0.888474039325361  0.0000
  Si     Si        0.163495737238768    0.298716991670667    0.268140512389757  0.0000
  Si     Si        0.339254829230627    0.705361383597318    0.265599689312456  0.0000
  Si     Si        0.663275349700374    0.726373136373065    0.707482235530729  0.0000
  Si     Si        0.840588716787514    0.707322186610464    0.701946978874474  0.0000
  Si     Si        0.654776256193852    0.316992562373029    0.702618538907301  0.0000
  Si     Si        0.161799790126976    0.702009052424797    0.269267777347743  0.0000
  Si     Si        0.340653924993366    0.305522610277023    0.265243973950151  0.0000
  Si     Si        0.658608944881171    0.316423859987058    0.010480524788756  0.0000
  Si     Si        0.843890528993580    0.692936697930026    0.013016065439847  0.0000
  Si     Si        0.336892351018885    0.310690479555441    0.954658894644623  0.0000
  Si     Si        0.156014498492783    0.705219985676889    0.961532447649154  0.0000
  Si     Si        0.333860402210194    0.708229355137596    0.955359418139158  0.0000
  Si     Si        0.159419340447379    0.305480758356762    0.959947141340461  0.0000
  Si     Si        0.666422751627652    0.716239204899191    0.013491234623345  0.0000
  Si     Si        0.836164208626212    0.295176079173631    0.013402096965518  0.0000
  O3     O3        0.109238925057598    0.181325381154995    0.355127394249452  0.0000
  O2     O2        0.393521816194220    0.832442460534625    0.350359331042915  0.0000
  O3     O3        0.895390298723027    0.171566654053813    0.605298530653694  0.0000
  O3     O3        0.608126645810906    0.845971681236279    0.620633402196217  0.0000
  O2     O2        0.895574704855644    0.836016559418623    0.621423494348367  0.0000
  O3     O3        0.591046250371132    0.214317593927403    0.620844170680577  0.0000
  O3     O3        0.107600015455023    0.815462544851789    0.358179772957680  0.0000
  O2     O2        0.396290540328861    0.178337138894384    0.348893851014288  0.0000
  O3     O3        0.019532297736898    0.997861325149455    0.531900353143601  0.0000
  O3     O3        0.517195806297131    0.004023195164476    0.435432600343536  0.0000
  O3     O3        0.970622417203811    0.000602516348901    0.274472197595561  0.0000
  O3     O3        0.479699765391862    0.997820861950503    0.185600022624717  0.0000
  O2     O2        0.986218496321179    0.018859708744845    0.778133864214681  0.0000
  O3     O3        0.460330211570015    0.005115875733944    0.686745613864161  0.0000
  O3     O3        0.602939849650578    0.202074484296541    0.097681484473139  0.0000
  O2     O2        0.898700327129870    0.815038761210879    0.099478180777358  0.0000
  O2     O2        0.389748313572300    0.185102250032574    0.869506158487701  0.0000
  O2     O2        0.101307204335234    0.832322269495796    0.875306380834818  0.0000
  O2     O2        0.382682227499680    0.839384697113169    0.867557432812363  0.0000
  O2     O2        0.107146790431682    0.177788661374146    0.872291691181863  0.0000
  O3     O3        0.616986935280326    0.839557635185572    0.103686869702188  0.0000
  O2     O2        0.882755257262253    0.161002860696925    0.106055756594181  0.0000
  O3     O3        0.514406764919630    0.997389307490083    0.919415897548954  0.0000
  O2     O2        0.013945085466704    0.018414851176419    0.032305447831108  0.0000
  O2     O2        0.143523469386655    0.499762061644896    0.295141693864255  0.0000
  O2     O2        0.361530139834928    0.505266934856295    0.299298235129114  0.0000
  O3     O3        0.858910353781852    0.512045566203259    0.662510999893033  0.0000
  O2     O2        0.642071087711907    0.524198613312813    0.686468511829873  0.0000
  O2     O2        0.253020768032393    0.263986936182760    0.303874046379303  0.0000
  O2     O2        0.251001580041283    0.740939773384286    0.303379743622991  0.0000
  O3     O3        0.739397168885064    0.266719810701039    0.653905764538353  0.0000
  O2     O2        0.751962088884502    0.755221457040974    0.666749543315719  0.0000
  O2     O2        0.149583436728083    0.255544679842053    0.113662354821039  0.0000
  O2     O2        0.350219943738917    0.743213530034534    0.109715194313898  0.0000
  O3     O3        0.847475669521744    0.248361520255360    0.861741654380982  0.0000
  O2     O2        0.653799434112595    0.778385004245377    0.861148331228583  0.0000
  O2     O2        0.854911100839215    0.733785256439462    0.858622513522393  0.0000
  O2     O2        0.647467377743174    0.261977592331370    0.856980322156734  0.0000
  O2     O2        0.145203915557325    0.750025475371673    0.115558524910217  0.0000
  O2     O2        0.352261635394209    0.272438845429062    0.109274486668950  0.0000
  O2     O2        0.637551435706246    0.518427754402458    0.030531619308494  0.0000
  O2     O2        0.866172612427528    0.491609265573854    0.041570375817832  0.0000
  O2     O2        0.358674206770931    0.510609245722197    0.920731072148160  0.0000
  O2     O2        0.133278770523377    0.504970214271001    0.932877471089467  0.0000
  O2     O2        0.746944145332627    0.281723024553813    0.052214257204878  0.0000
  O2     O2        0.756136825126131    0.728855993451167    0.053278906121624  0.0000
  O2     O2        0.247707339534097    0.278683861705226    0.918482596206431  0.0000
  O2     O2        0.244108262859135    0.737092502870012    0.921342833150054  0.0000
