data_c00104.vasp
_audit_creation_method             Generated by GULP
_audit_author_name                 Salvador R. G. Balestra
_symmetry_space_group_name_H-M     'P 1             '
_symmetry_Int_Tables_number        1

loop_
_symmetry_equiv_pos_site_id
_symmetry_equiv_pos_as_xyz
_cell_length_a                       17.2836
_cell_length_b                        7.6309
_cell_length_c                       10.3086
_cell_angle_alpha                   90.5865
_cell_angle_beta                    91.3531
_cell_angle_gamma                   89.7855

loop_
_atom_site_label
_atom_site_type_symbol
_atom_site_fract_x
_atom_site_fract_y
_atom_site_fract_z
_atom_site_charge
  Ge     Ge        0.052090000000021    0.000000000000000    0.372269999999958  0.0000
  Ge     Ge        0.945259972807166    0.989674487582116    0.631323334990967  0.0000
  Ge     Ge        0.158602835233088    0.312524400180444    0.296501130887420  0.0000
  Ge     Ge        0.849442987536790    0.309623544305248    0.038200425616676  0.0000
  Si     Si        0.456353344055890    0.988513561338384    0.377418097334177  0.0000
  Si     Si        0.545976748209034    0.983146011082909    0.647924076374631  0.0000
  Si     Si        0.559304966995180    0.994854837957499    0.129767154305224  0.0000
  Si     Si        0.950925348595650    0.998271276255373    0.111372364702584  0.0000
  Si     Si        0.440718473536540    0.985223098808988    0.892348807722057  0.0000
  Si     Si        0.059221304654679    0.998005666038800    0.875510988977284  0.0000
  Si     Si        0.352949572324720    0.681694885697681    0.288070551015192  0.0000
  Si     Si        0.838835548651374    0.293478459700343    0.731602951519454  0.0000
  Si     Si        0.650814306409944    0.678295300767836    0.733814358867686  0.0000
  Si     Si        0.828293445705282    0.701690470293781    0.730008639785435  0.0000
  Si     Si        0.661664314194143    0.275739524522120    0.739049737148219  0.0000
  Si     Si        0.174072909135514    0.721834558740607    0.293068161433221  0.0000
  Si     Si        0.340674056063614    0.280029105713301    0.291527251651902  0.0000
  Si     Si        0.668132920114108    0.287294306662359    0.044166447486275  0.0000
  Si     Si        0.835290561215821    0.715777250457045    0.030602758537323  0.0000
  Si     Si        0.332962067532774    0.278197159342379    0.986891983867371  0.0000
  Si     Si        0.167769560082807    0.708697831478038    0.990553165983092  0.0000
  Si     Si        0.346329009268707    0.675528735593508    0.985964536855051  0.0000
  Si     Si        0.154301388000292    0.306002129485055    0.988853635906584  0.0000
  Si     Si        0.656660483777775    0.683844709509978    0.036398075886294  0.0000
  O1     O1        0.093092148775077    0.203327855376674    0.385723683114204  0.0000
  O2     O2        0.411533864508831    0.803664212002166    0.370300595933934  0.0000
  O3     O3        0.895777630435559    0.185753240995512    0.641772319879949  0.0000
  O2     O2        0.590610934067460    0.797100343998537    0.652966356372666  0.0000
  O3     O3        0.881042742810318    0.818580754885371    0.643085514736647  0.0000
  O2     O2        0.607113958522611    0.140484996209600    0.662192364190610  0.0000
  O3     O3        0.131359786791452    0.859264691287086    0.382189098747959  0.0000
  O2     O2        0.395422021840165    0.147876745221647    0.370725643936531  0.0000
  O1     O1        0.980882987276125    0.969540367332664    0.478588428310280  0.0000
  O2     O2        0.503060883891873    0.000555244580220    0.511262741911434  0.0000
  O3     O3        0.013120916994460    0.955139533519109    0.219432061416996  0.0000
  O2     O2        0.516998760908906    0.004254260476921    0.264215339442736  0.0000
  O3     O3        0.027162788208188    0.982135955319462    0.730242870644680  0.0000
  O2     O2        0.481937992530616    0.997479758164758    0.756787492713013  0.0000
  O2     O2        0.619619911141752    0.154165863737780    0.128385187357333  0.0000
  O2     O2        0.878620216958604    0.864008276938478    0.115156223687337  0.0000
  O2     O2        0.376170006664655    0.137543009689314    0.898268514248482  0.0000
  O2     O2        0.120953644423446    0.842274492363260    0.899719780798419  0.0000
  O2     O2        0.400724569848669    0.794992276062621    0.899856582645760  0.0000
  O2     O2        0.098564521411506    0.188837634143868    0.896092589241852  0.0000
  O2     O2        0.603859623779740    0.809601041039198    0.122103750757515  0.0000
  O3     O3        0.915494687661250    0.191935570284921    0.129790947688239  0.0000
  O2     O2        0.500422876144885    0.017391927127124    0.009966615645734  0.0000
  O2     O2        0.987201601749074    0.978015197654930    0.969150045025376  0.0000
  O3     O3        0.140704276672593    0.531129104759676    0.319554016345643  0.0000
  O2     O2        0.370858307611804    0.478388579180703    0.316524006069195  0.0000
  O2     O2        0.854569028319946    0.499945321678955    0.716463408142783  0.0000
  O2     O2        0.632386411917297    0.473328394333541    0.709960669543117  0.0000
  O3     O3        0.253680746318425    0.262510232737587    0.337604516969687  0.0000
  O2     O2        0.265561164587095    0.724371273570026    0.327755378859967  0.0000
  O2     O2        0.749401259033752    0.251719879155606    0.692018054496103  0.0000
  O2     O2        0.737719341696992    0.719774075674394    0.689406781638439  0.0000
  O3     O3        0.141521872513321    0.251635072624364    0.135608984148643  0.0000
  O2     O2        0.363279911870896    0.722841134278787    0.136439506240207  0.0000
  O3     O3        0.855654427206461    0.238929846923966    0.879226664775381  0.0000
  O2     O2        0.641952219151348    0.727213374226464    0.885208159517561  0.0000
  O2     O2        0.839514601515564    0.764149202962072    0.878975770269926  0.0000
  O2     O2        0.660946731157171    0.236775736713516    0.891978894232431  0.0000
  O2     O2        0.161436970919393    0.766537033635100    0.140327822719439  0.0000
  O2     O2        0.343627613132242    0.233336618133773    0.138434918330696  0.0000
  O2     O2        0.634523473484613    0.483623111625706    0.065526921600980  0.0000
  O3     O3        0.873323785423477    0.527794485053776    0.055260534195278  0.0000
  O2     O2        0.366039274084805    0.471838467353059    0.958711791630625  0.0000
  O2     O2        0.134033209438170    0.512155757719342    0.970513290263206  0.0000
  O3     O3        0.756518408140212    0.278666858068092    0.090287606591597  0.0000
  O2     O2        0.746439774548576    0.713037564588669    0.074009614606316  0.0000
  O2     O2        0.242518670504733    0.271531369999164    0.948795126417875  0.0000
  O2     O2        0.256908744330220    0.713133300280103    0.949215724859137  0.0000
