data_c00192.vasp
_audit_creation_method             Generated by GULP
_audit_author_name                 Salvador R. G. Balestra
_symmetry_space_group_name_H-M     'P 1             '
_symmetry_Int_Tables_number        1

loop_
_symmetry_equiv_pos_site_id
_symmetry_equiv_pos_as_xyz
_cell_length_a                       16.8448
_cell_length_b                        7.5282
_cell_length_c                       10.6455
_cell_angle_alpha                   89.6183
_cell_angle_beta                    90.6588
_cell_angle_gamma                   89.6467

loop_
_atom_site_label
_atom_site_type_symbol
_atom_site_fract_x
_atom_site_fract_y
_atom_site_fract_z
_atom_site_charge
  Ge     Ge        0.052090000000021    0.000000000000000    0.372269999999958  0.0000
  Ge     Ge        0.561009295885806    0.972003450231754    0.125659611825992  0.0000
  Ge     Ge        0.443841272768791    0.977203054627004    0.884032273392640  0.0000
  Ge     Ge        0.058361215116449    0.000458300188517    0.883930850211569  0.0000
  Si     Si        0.457994248606620    0.972653744961448    0.373906863080625  0.0000
  Si     Si        0.952596014310662    0.995363960677214    0.631297480811134  0.0000
  Si     Si        0.548429593651788    0.980473733722137    0.636258643122303  0.0000
  Si     Si        0.947984575599720    0.976774871416039    0.117111096098777  0.0000
  Si     Si        0.153441620179694    0.315141507767024    0.285953109035724  0.0000
  Si     Si        0.360987265404482    0.661058291133970    0.276642829040475  0.0000
  Si     Si        0.852282080826081    0.304012708959343    0.722417007147947  0.0000
  Si     Si        0.650756514529704    0.669190768177758    0.733039954329270  0.0000
  Si     Si        0.832908793292586    0.711563443050343    0.729422859486029  0.0000
  Si     Si        0.668974553246497    0.258876389232441    0.727354417779696  0.0000
  Si     Si        0.178359241318689    0.724195378720316    0.281402938323653  0.0000
  Si     Si        0.335558928683842    0.254133228247933    0.280634641477066  0.0000
  Si     Si        0.676484199616706    0.245491153459216    0.017295632358027  0.0000
  Si     Si        0.833676177695780    0.699788531757496    0.022409611100882  0.0000
  Si     Si        0.326662629710676    0.251169666955402    0.988946013739571  0.0000
  Si     Si        0.175733780280852    0.724264438877231    0.992004119546897  0.0000
  Si     Si        0.359370669209558    0.648529240860504    0.987122411909706  0.0000
  Si     Si        0.144172426808028    0.324385988550373    0.996205915814334  0.0000
  Si     Si        0.650467370490368    0.646798357700766    0.024038026595413  0.0000
  Si     Si        0.860489743000619    0.301995384250928    0.012903979553165  0.0000
  O3     O3        0.092296958249182    0.210786863683064    0.371744883294506  0.0000
  O2     O2        0.423063697213342    0.773601241023871    0.359330859203214  0.0000
  O2     O2        0.911669420385715    0.191130273262049    0.636607453407221  0.0000
  O2     O2        0.587878802698258    0.785137139666395    0.652923892457980  0.0000
  O2     O2        0.883517258445119    0.849775431712115    0.649828402473377  0.0000
  O2     O2        0.617562127712346    0.129231723885505    0.639910732305159  0.0000
  O3     O3        0.132041811596425    0.854224195737006    0.371435420016355  0.0000
  O2     O2        0.385944731788502    0.115360616709210    0.364629108870881  0.0000
  O3     O3        0.993423178405024    0.967793341515132    0.500122704661578  0.0000
  O2     O2        0.502013986419188    0.989772412967029    0.505820725788347  0.0000
  O3     O3        0.989364762956808    0.954749486478960    0.249185320821019  0.0000
  O3     O3        0.522783182125443    0.011523337360985    0.269988092437079  0.0000
  O3     O3        0.020606780126146    0.974878363879678    0.736395427106820  0.0000
  O3     O3        0.484377932775563    0.018688788600912    0.741269632183007  0.0000
  O3     O3        0.645627278043239    0.100977107545716    0.111174164304883  0.0000
  O2     O2        0.872022179751406    0.845575120948764    0.112225411238209  0.0000
  O3     O3        0.358331990307999    0.105230392445718    0.896689633273630  0.0000
  O3     O3        0.142741424069984    0.867402945304452    0.895905758940644  0.0000
  O3     O3        0.417656212414263    0.755408945457992    0.898943580253950  0.0000
  O3     O3        0.082938892187180    0.220271667541739    0.910067543166007  0.0000
  O3     O3        0.590313198503166    0.751957551506391    0.109568908189737  0.0000
  O2     O2        0.920024450813994    0.182214157960033    0.096237128656142  0.0000
  O1     O1        0.501676102480511    0.044722774974680    0.006095119178793  0.0000
  O3     O3        0.001182093002982    0.916323703327172    0.002040785070195  0.0000
  O2     O2        0.146075783483466    0.525369833750265    0.305381227687388  0.0000
  O2     O2        0.370150640885519    0.451396729364468    0.304471134031735  0.0000
  O2     O2        0.862857558819714    0.513110562220685    0.696120289940270  0.0000
  O2     O2        0.638913914790836    0.461005546233991    0.705442978977176  0.0000
  O2     O2        0.243282635088625    0.249709833133489    0.318883197507403  0.0000
  O2     O2        0.272504720551852    0.725940806403653    0.309453560058230  0.0000
  O2     O2        0.761884386721606    0.246406294285410    0.693390118650584  0.0000
  O2     O2        0.739534059877608    0.728318943602109    0.695850317726332  0.0000
  O2     O2        0.130730434258875    0.266745692674855    0.141715680185321  0.0000
  O2     O2        0.381976174143025    0.701462287296754    0.131355834431336  0.0000
  O2     O2        0.877505767572492    0.260070264269650    0.866499564073024  0.0000
  O2     O2        0.633621186214536    0.708317434815576    0.879274051996949  0.0000
  O2     O2        0.844448540595473    0.753255598226666    0.876428765672343  0.0000
  O2     O2        0.658257988600456    0.196436041747193    0.871411275468436  0.0000
  O2     O2        0.163784328714395    0.785456737913772    0.136775238937296  0.0000
  O2     O2        0.342727350444475    0.198314544848620    0.135225348191655  0.0000
  O2     O2        0.636028993725364    0.437573044657922    0.041767818708911  0.0000
  O2     O2        0.875886428206952    0.507948731556902    0.044658098673502  0.0000
  O2     O2        0.370724761254236    0.439099616999560    0.964935441310989  0.0000
  O2     O2        0.131764710003950    0.534674768032119    0.975946779067999  0.0000
  O2     O2        0.770260384804792    0.256633082639137    0.041094743466467  0.0000
  O2     O2        0.741561628649766    0.691232655016192    0.057481414458737  0.0000
  O2     O2        0.233501072021759    0.271161493477184    0.960522521248752  0.0000
  O2     O2        0.268380452493841    0.702003485194762    0.962487044783684  0.0000
