data_c00195.vasp
_audit_creation_method             Generated by GULP
_audit_author_name                 Salvador R. G. Balestra
_symmetry_space_group_name_H-M     'P 1             '
_symmetry_Int_Tables_number        1

loop_
_symmetry_equiv_pos_site_id
_symmetry_equiv_pos_as_xyz
_cell_length_a                       17.0219
_cell_length_b                        7.5468
_cell_length_c                       10.5011
_cell_angle_alpha                   89.3632
_cell_angle_beta                    90.8064
_cell_angle_gamma                   90.1027

loop_
_atom_site_label
_atom_site_type_symbol
_atom_site_fract_x
_atom_site_fract_y
_atom_site_fract_z
_atom_site_charge
  Ge     Ge        0.052090000000021    0.000000000000000    0.372269999999958  0.0000
  Ge     Ge        0.559070881519157    0.979141107180492    0.106010596206273  0.0000
  Ge     Ge        0.438720233896985    0.984925424797787    0.863361710102184  0.0000
  Ge     Ge        0.851559633975595    0.322760463392283    0.708036930372105  0.0000
  Si     Si        0.455855156608446    0.984819165509668    0.357268235830660  0.0000
  Si     Si        0.953417694028461    0.011716524938943    0.631358308824367  0.0000
  Si     Si        0.545796880528710    0.994080475700573    0.621471968798593  0.0000
  Si     Si        0.943836898022356    0.992007131875507    0.117709255878326  0.0000
  Si     Si        0.054264002489231    0.997533782762683    0.886360429092307  0.0000
  Si     Si        0.154439959250391    0.313957706233298    0.285284065075381  0.0000
  Si     Si        0.355976502963651    0.673485469806721    0.265303945734192  0.0000
  Si     Si        0.649846858074045    0.687042314003497    0.726543402017047  0.0000
  Si     Si        0.829842312333672    0.735456420165347    0.723566363868785  0.0000
  Si     Si        0.667130642329042    0.277360201784049    0.712151419442973  0.0000
  Si     Si        0.175464410168292    0.722020522385076    0.275986383115832  0.0000
  Si     Si        0.335568441571883    0.265430334932134    0.274201786401264  0.0000
  Si     Si        0.676299231993454    0.256992955357916    0.008407484935155  0.0000
  Si     Si        0.830916659680217    0.710161193809236    0.022169570319226  0.0000
  Si     Si        0.325185451224054    0.259719454139961    0.979565454518572  0.0000
  Si     Si        0.167864682944662    0.715001871510441    0.980999951127405  0.0000
  Si     Si        0.349623821013777    0.660895650917221    0.970723102613176  0.0000
  Si     Si        0.143818535972614    0.314650530304672    0.991334078880351  0.0000
  Si     Si        0.650270271282162    0.654738633450872    0.021797720880538  0.0000
  Si     Si        0.858142776030790    0.314326339115786    0.010286499136563  0.0000
  O3     O3        0.095151484089400    0.207995443844694    0.373483900338035  0.0000
  O2     O2        0.418515939292982    0.787931635954212    0.345567240743052  0.0000
  O3     O3        0.919282610288930    0.209177666411473    0.619457969937187  0.0000
  O2     O2        0.586735580945349    0.804584510232241    0.649528976360026  0.0000
  O2     O2        0.875885943714490    0.889729712310044    0.649923949650660  0.0000
  O2     O2        0.609419084817010    0.152124987508566    0.631193365904320  0.0000
  O3     O3        0.129518514598359    0.852893073067754    0.364003196704936  0.0000
  O2     O2        0.386119042393009    0.130895249030224    0.361836035180866  0.0000
  O3     O3        0.001528428854981    0.959926285552477    0.509383798927504  0.0000
  O2     O2        0.510686553707932    0.992635620175592    0.480410654203593  0.0000
  O3     O3        0.984961702688978    0.967390125945905    0.252041231556182  0.0000
  O3     O3        0.510536339563349    0.030989021345689    0.240426935289479  0.0000
  O2     O2        0.012035398056313    0.985697600097195    0.751274496684899  0.0000
  O3     O3        0.473444157280714    0.021684782725357    0.713588114463111  0.0000
  O3     O3        0.643255208665610    0.108247009471554    0.098636163524845  0.0000
  O2     O2        0.870388701948990    0.856104138102651    0.111963766118149  0.0000
  O3     O3        0.357400268403242    0.118183345192158    0.885105887317424  0.0000
  O2     O2        0.126417498170738    0.858434398656075    0.888727714354454  0.0000
  O3     O3        0.407027597192479    0.767231961497719    0.880698768351916  0.0000
  O2     O2        0.084856724356683    0.198625050495299    0.905704965432255  0.0000
  O3     O3        0.589706398032576    0.759877788626478    0.106133716266493  0.0000
  O2     O2        0.914134091115836    0.194680978311402    0.101062385353344  0.0000
  O1     O1        0.506717267169516    0.042376988766832    0.974272680407691  0.0000
  O2     O2        0.998999825741125    0.938487997103318    0.001419893173914  0.0000
  O2     O2        0.145795938091198    0.522914703881566    0.305806624510467  0.0000
  O2     O2        0.367528502273637    0.465197904573423    0.294523133904038  0.0000
  O3     O3        0.863612595219070    0.547170755446196    0.683972491961779  0.0000
  O2     O2        0.637441190073313    0.480303892237574    0.696155476666568  0.0000
  O2     O2        0.244431394868630    0.254573305878263    0.313218793081842  0.0000
  O2     O2        0.268708073492399    0.732831804585707    0.303021497969193  0.0000
  O3     O3        0.756099218486354    0.266045525920975    0.666892201591708  0.0000
  O2     O2        0.737389268894477    0.745622323223114    0.686457647695712  0.0000
  O2     O2        0.130055311014182    0.265695073502277    0.139590043376690  0.0000
  O2     O2        0.371500000198245    0.715780213090079    0.116411931098514  0.0000
  O3     O3        0.874587371263333    0.270222544103548    0.864710209497362  0.0000
  O2     O2        0.635521202594564    0.721787421652361    0.875752057656200  0.0000
  O2     O2        0.837979829049081    0.765795396166244    0.874552784839123  0.0000
  O2     O2        0.663932528268806    0.212848103145300    0.859036410606984  0.0000
  O2     O2        0.159305267008768    0.772658027103434    0.127784353838116  0.0000
  O2     O2        0.343963870929707    0.208010166686855    0.127215123095865  0.0000
  O2     O2        0.634219739084426    0.445626960036255    0.034949000291280  0.0000
  O2     O2        0.874268122942343    0.520642401641655    0.041646737668445  0.0000
  O2     O2        0.363370267673059    0.452423897747029    0.951742416104716  0.0000
  O2     O2        0.127724547619889    0.522015722065056    0.962752055404803  0.0000
  O2     O2        0.768086438461701    0.272797722962890    0.039287087679583  0.0000
  O2     O2        0.740207042942990    0.696837984899288    0.061388572276049  0.0000
  O2     O2        0.232248089366055    0.269244591135840    0.955874634144035  0.0000
  O2     O2        0.258727160687721    0.708629510621819    0.942878878075075  0.0000
