data_c00111.vasp
_audit_creation_method             Generated by GULP
_audit_author_name                 Salvador R. G. Balestra
_symmetry_space_group_name_H-M     'P 1             '
_symmetry_Int_Tables_number        1

loop_
_symmetry_equiv_pos_site_id
_symmetry_equiv_pos_as_xyz
_cell_length_a                       17.3213
_cell_length_b                        7.6612
_cell_length_c                       10.2324
_cell_angle_alpha                   89.5537
_cell_angle_beta                    90.6168
_cell_angle_gamma                   89.5107

loop_
_atom_site_label
_atom_site_type_symbol
_atom_site_fract_x
_atom_site_fract_y
_atom_site_fract_z
_atom_site_charge
  Ge     Ge        0.052090000000021    0.000000000000000    0.372269999999958  0.0000
  Ge     Ge        0.945557747757863    0.003825390117822    0.636213350670555  0.0000
  Ge     Ge        0.349171154634165    0.677146992103614    0.279646473832645  0.0000
  Ge     Ge        0.166762107318676    0.706697961173124    0.965686990521911  0.0000
  Si     Si        0.455140052162408    0.982476192653118    0.357489262460419  0.0000
  Si     Si        0.546963225116250    0.005697480424377    0.622290308523146  0.0000
  Si     Si        0.559482224867506    0.002420686950955    0.105499100187498  0.0000
  Si     Si        0.943530940715573    0.994021718104634    0.124761440059590  0.0000
  Si     Si        0.443111106592092    0.990521919655277    0.867940198260084  0.0000
  Si     Si        0.053687100113841    0.001480215122963    0.891218537530015  0.0000
  Si     Si        0.160669243333562    0.299606494005585    0.270964937971294  0.0000
  Si     Si        0.833747296126361    0.303417401621539    0.705208083485957  0.0000
  Si     Si        0.654020241059608    0.702472523761115    0.715819260256547  0.0000
  Si     Si        0.832402002458592    0.707062705321587    0.707695906549047  0.0000
  Si     Si        0.656096276431284    0.301643565507464    0.716237275733121  0.0000
  Si     Si        0.169948958088724    0.707894477295504    0.275350894050113  0.0000
  Si     Si        0.338483848495754    0.269867579329319    0.273759378278445  0.0000
  Si     Si        0.664498994800244    0.299172024762766    0.022125819326646  0.0000
  Si     Si        0.839253102305533    0.701212972096097    0.011419221228941  0.0000
  Si     Si        0.335818682064895    0.283396509794156    0.968041742051114  0.0000
  Si     Si        0.346755276543337    0.680964108916328    0.964934285332661  0.0000
  Si     Si        0.156710871411785    0.302467997729184    0.969927489776009  0.0000
  Si     Si        0.660474595655211    0.696191819563626    0.020817502770405  0.0000
  Si     Si        0.842524806719258    0.299678579319834    0.009685986634760  0.0000
  O3     O3        0.102543736126950    0.192591198813540    0.357817841799504  0.0000
  O3     O3        0.417467025660999    0.793576922756087    0.364266249127272  0.0000
  O3     O3        0.887241604835382    0.187744904593684    0.615797464119631  0.0000
  O2     O2        0.598118559615439    0.829857691745248    0.633915348793397  0.0000
  O3     O3        0.885252879642053    0.825280203216827    0.619469076719968  0.0000
  O2     O2        0.599851769150259    0.175511248609446    0.637761071267392  0.0000
  O3     O3        0.111822337791938    0.821059321414246    0.359551746287631  0.0000
  O2     O2        0.384929763605864    0.122409282194959    0.354320228533800  0.0000
  O1     O1        0.018536188357536    0.997058253205762    0.529015106875012  0.0000
  O2     O2        0.510469344889913    0.016008301526553    0.479368333120389  0.0000
  O3     O3        0.970607337594770    0.993586893103902    0.273570631738720  0.0000
  O2     O2        0.505582070408828    0.006043035822085    0.228917426771325  0.0000
  O3     O3        0.984095689801059    0.008157695634602    0.791760249525744  0.0000
  O2     O2        0.477705826363596    0.003969022281854    0.724431282866802  0.0000
  O2     O2        0.616525771805468    0.167442883695867    0.111306081998455  0.0000
  O2     O2        0.889888022002592    0.826233495099335    0.101277272952387  0.0000
  O2     O2        0.379137519533745    0.143192214861283    0.879488414523073  0.0000
  O3     O3        0.110582364114109    0.839446500776043    0.867561328300226  0.0000
  O2     O2        0.405562952909368    0.800264251357919    0.883641599354239  0.0000
  O2     O2        0.104302633109034    0.177730256079373    0.881369867034502  0.0000
  O2     O2        0.609100699808544    0.823058293891101    0.108700580304321  0.0000
  O2     O2        0.898163609175338    0.174657936878746    0.094122739153092  0.0000
  O2     O2        0.509791679283000    0.018938189045722    0.973920135348569  0.0000
  O2     O2        0.020058312266609    0.978580596139644    0.037810280730115  0.0000
  O2     O2        0.144223146934491    0.505518818866745    0.280781229717305  0.0000
  O3     O3        0.370580749835693    0.459265044208158    0.304872166583320  0.0000
  O2     O2        0.852589983261388    0.505696528165545    0.680487244375706  0.0000
  O2     O2        0.632966694869741    0.502300093493454    0.684487476886300  0.0000
  O2     O2        0.248909924189526    0.259060936051842    0.315117436223128  0.0000
  O3     O3        0.256563232585660    0.722337489742887    0.330960320757781  0.0000
  O2     O2        0.743897137847562    0.266798237686967    0.672907473815006  0.0000
  O2     O2        0.741990418489975    0.741688864736706    0.677054303823235  0.0000
  O2     O2        0.148818686249209    0.241288834116283    0.120704663227061  0.0000
  O3     O3        0.353177670393259    0.731049433418343    0.116056138547860  0.0000
  O2     O2        0.850733864417439    0.253988979392874    0.857278246763268  0.0000
  O2     O2        0.642661587857208    0.738769362095949    0.869177698739688  0.0000
  O2     O2        0.849847996077856    0.752433916191348    0.859782227805187  0.0000
  O2     O2        0.648470875349477    0.261585991427436    0.869964719219049  0.0000
  O3     O3        0.166877466944225    0.773495825134326    0.126004824903954  0.0000
  O2     O2        0.345706628672130    0.230308050625147    0.119551505198100  0.0000
  O2     O2        0.638783600824273    0.496887712284790    0.055158371769407  0.0000
  O2     O2        0.866044991411202    0.500584358944272    0.035274210053830  0.0000
  O2     O2        0.370115491963250    0.476783889671055    0.945960086861110  0.0000
  O3     O3        0.129557866085147    0.499347766540856    0.950330164005867  0.0000
  O2     O2        0.754770030600705    0.270859862072318    0.054576803093393  0.0000
  O2     O2        0.750428594002706    0.726440814871633    0.051708980413483  0.0000
  O2     O2        0.245911108714165    0.284055422678529    0.927186382832556  0.0000
  O3     O3        0.260633746551069    0.711318005084159    0.911987743930513  0.0000
