data_c00161.vasp
_audit_creation_method             Generated by GULP
_audit_author_name                 Salvador R. G. Balestra
_symmetry_space_group_name_H-M     'P 1             '
_symmetry_Int_Tables_number        1

loop_
_symmetry_equiv_pos_site_id
_symmetry_equiv_pos_as_xyz
_cell_length_a                       17.3507
_cell_length_b                        7.6604
_cell_length_c                       10.1917
_cell_angle_alpha                   88.7192
_cell_angle_beta                    89.9036
_cell_angle_gamma                   90.3483

loop_
_atom_site_label
_atom_site_type_symbol
_atom_site_fract_x
_atom_site_fract_y
_atom_site_fract_z
_atom_site_charge
  Ge     Ge        0.052090000000021    0.000000000000000    0.372269999999958  0.0000
  Ge     Ge        0.552725215462063    0.023221767462248    0.624887979150568  0.0000
  Ge     Ge        0.348479148983990    0.702827576402855    0.291340213362392  0.0000
  Ge     Ge        0.850994612686368    0.340199380851762    0.724054443386980  0.0000
  Si     Si        0.456912902283993    0.004531511166263    0.360533372021151  0.0000
  Si     Si        0.955253636908944    0.036111294027590    0.635490158286560  0.0000
  Si     Si        0.554110929626428    0.001236547235347    0.100434192967216  0.0000
  Si     Si        0.943175567586542    0.010720115327537    0.115184076746133  0.0000
  Si     Si        0.438842445077367    0.017268083670521    0.865116057484030  0.0000
  Si     Si        0.057848351220250    0.014547073670067    0.880900870399894  0.0000
  Si     Si        0.163633282292202    0.302956624599171    0.294595290435434  0.0000
  Si     Si        0.661826987679563    0.719530235017507    0.728649547990913  0.0000
  Si     Si        0.837699469481840    0.745196899739755    0.735168326792526  0.0000
  Si     Si        0.670621596381031    0.313498738503592    0.720714993898880  0.0000
  Si     Si        0.166763095409122    0.709042398413459    0.297366326307899  0.0000
  Si     Si        0.341957547338659    0.294267000785609    0.287118765801923  0.0000
  Si     Si        0.665693539549987    0.298516877253942    0.027126181542771  0.0000
  Si     Si        0.833125269672779    0.714261161060160    0.046595226493969  0.0000
  Si     Si        0.336907918398565    0.311565557322499    0.979383264334812  0.0000
  Si     Si        0.162144089539477    0.716261170056436    0.991493859152242  0.0000
  Si     Si        0.341093873823925    0.711377559645103    0.978193782635763  0.0000
  Si     Si        0.158419747924482    0.314602252635913    0.990165702287148  0.0000
  Si     Si        0.656845966853486    0.697698430895101    0.034401452258399  0.0000
  Si     Si        0.843599525018210    0.320835371216056    0.040224459544642  0.0000
  O3     O3        0.108757338032543    0.185507610189801    0.384375680548750  0.0000
  O3     O3        0.412218700189068    0.822188823658473    0.381777352748146  0.0000
  O3     O3        0.920200947572846    0.228458901122750    0.640083522485670  0.0000
  O3     O3        0.601630268491076    0.830119819360289    0.646615077860025  0.0000
  O2     O2        0.886456887623366    0.903656604583732    0.674614277867628  0.0000
  O3     O3        0.613573767837313    0.199289146173125    0.636857637766689  0.0000
  O3     O3        0.111088266544935    0.820167902999379    0.385887588696963  0.0000
  O2     O2        0.392234133422475    0.155047542895399    0.367781498414654  0.0000
  O3     O3        0.982621238470428    0.994866849599782    0.490874924071175  0.0000
  O3     O3        0.522967018719072    0.030492862783231    0.463953370049045  0.0000
  O3     O3        0.006862532519012    0.994967436309537    0.223442063509157  0.0000
  O2     O2        0.493011416195032    0.011818861631672    0.215161690745128  0.0000
  O2     O2        0.029153407302079    0.015211971328640    0.731139007324493  0.0000
  O3     O3        0.470506450430878    0.032339739189697    0.719121468135500  0.0000
  O2     O2        0.614771035666250    0.160898868125242    0.110457602764076  0.0000
  O2     O2        0.882704172732267    0.849880938500764    0.128983596169273  0.0000
  O2     O2        0.385338330816272    0.184272671679239    0.889746175774619  0.0000
  O2     O2        0.111269628265026    0.845692190779086    0.902836632702059  0.0000
  O2     O2        0.390054240965947    0.838509652427664    0.882241959727764  0.0000
  O2     O2        0.104692023972768    0.193884579799851    0.902380720133328  0.0000
  O2     O2        0.598316284399164    0.816135009022155    0.115505782836200  0.0000
  O2     O2        0.896377812367341    0.191526043170960    0.127615476228389  0.0000
  O2     O2        0.512459450115529    0.016556313530582    0.960403523548512  0.0000
  O2     O2        0.983341162730309    0.003155449530009    0.972993960369164  0.0000
  O2     O2        0.147433804989042    0.505033200594426    0.319814756191190  0.0000
  O3     O3        0.368079369309104    0.486264354029634    0.323401481090547  0.0000
  O3     O3        0.867093193617436    0.559546290515067    0.689075650587135  0.0000
  O2     O2        0.649121580299103    0.516317396145123    0.700576594484807  0.0000
  O2     O2        0.252738589168737    0.262358529631805    0.325852005164220  0.0000
  O3     O3        0.254591135550432    0.746545343370656    0.334035132760258  0.0000
  O3     O3        0.758336959977409    0.285414672903999    0.678369652852519  0.0000
  O2     O2        0.749256636922215    0.773697874955368    0.690136601803265  0.0000
  O2     O2        0.146464897721432    0.258890984151684    0.142303918432922  0.0000
  O3     O3        0.360655159703035    0.754340864997547    0.126614539266328  0.0000
  O3     O3        0.861493819450774    0.292927794661373    0.888851722427199  0.0000
  O2     O2        0.649214825557426    0.755663206122971    0.882486802872464  0.0000
  O2     O2        0.842442561362019    0.749306104650046    0.892268053540344  0.0000
  O2     O2        0.659891908496667    0.256839047020206    0.873589166332436  0.0000
  O2     O2        0.153006709277187    0.762652302638974    0.143977186315162  0.0000
  O2     O2        0.352179943248170    0.266796587052525    0.131505242343844  0.0000
  O2     O2        0.635164578971879    0.493632218351151    0.054904254449367  0.0000
  O2     O2        0.862793764948410    0.519087085505778    0.081194254865380  0.0000
  O2     O2        0.362803644308271    0.510992334212693    0.948055050401903  0.0000
  O2     O2        0.134995444683797    0.517021323711026    0.967305042046354  0.0000
  O2     O2        0.754046491061410    0.280253498947190    0.071470436759088  0.0000
  O2     O2        0.743441226085425    0.731674933513659    0.085500450670198  0.0000
  O2     O2        0.246709706051508    0.287082777514177    0.947600835175183  0.0000
  O2     O2        0.250791491982688    0.740489565169137    0.949759108714365  0.0000
