data_c00160.vasp
_audit_creation_method             Generated by GULP
_audit_author_name                 Salvador R. G. Balestra
_symmetry_space_group_name_H-M     'P 1             '
_symmetry_Int_Tables_number        1

loop_
_symmetry_equiv_pos_site_id
_symmetry_equiv_pos_as_xyz
_cell_length_a                       17.3300
_cell_length_b                        7.6401
_cell_length_c                       10.1873
_cell_angle_alpha                   90.4598
_cell_angle_beta                    90.4501
_cell_angle_gamma                   89.8951

loop_
_atom_site_label
_atom_site_type_symbol
_atom_site_fract_x
_atom_site_fract_y
_atom_site_fract_z
_atom_site_charge
  Ge     Ge        0.052090000000021    0.000000000000000    0.372269999999958  0.0000
  Ge     Ge        0.552447977878783    0.985939301660788    0.644334148993260  0.0000
  Ge     Ge        0.159945051492990    0.310711250331874    0.290520592113550  0.0000
  Ge     Ge        0.847580843971353    0.312738606993346    0.044057359751313  0.0000
  Si     Si        0.454302895064963    0.990638889179599    0.377967296687856  0.0000
  Si     Si        0.949871371096928    0.993193092099780    0.630021831085796  0.0000
  Si     Si        0.556857318574212    0.993800790080794    0.134434296156548  0.0000
  Si     Si        0.947863145551617    0.000070096709093    0.114525384650755  0.0000
  Si     Si        0.442709794509223    0.993405825410451    0.899439150391222  0.0000
  Si     Si        0.057336955736161    0.000843805797869    0.873172076026145  0.0000
  Si     Si        0.350821701752499    0.685731149977410    0.279301179012787  0.0000
  Si     Si        0.848753893666246    0.299258062993655    0.729173348732592  0.0000
  Si     Si        0.660323683332760    0.680341236015500    0.718815477548552  0.0000
  Si     Si        0.837512228534950    0.699966046554516    0.726793186268579  0.0000
  Si     Si        0.670929712515691    0.275373552715967    0.724472774594016  0.0000
  Si     Si        0.172644203861845    0.720962839626978    0.288256044741195  0.0000
  Si     Si        0.340019395875888    0.285566178050570    0.281827334717710  0.0000
  Si     Si        0.665657181911959    0.284875361918941    0.030439765542114  0.0000
  Si     Si        0.832851866098043    0.713942182715118    0.036508519764290  0.0000
  Si     Si        0.331798780541420    0.287963029091749    0.971676367721731  0.0000
  Si     Si        0.165956656648476    0.711199906478823    0.982952475427091  0.0000
  Si     Si        0.343931192552499    0.683284779123902    0.972549611965983  0.0000
  Si     Si        0.154997924747647    0.307250828890181    0.979045193719410  0.0000
  Si     Si        0.655049057946362    0.687436093746123    0.023568958254732  0.0000
  O1     O1        0.093627557568833    0.201533021862511    0.381080638071560  0.0000
  O2     O2        0.409289771529637    0.807661795295040    0.359862845842758  0.0000
  O2     O2        0.906051994288309    0.178311693543100    0.644828680584872  0.0000
  O3     O3        0.601809620855498    0.789672723509447    0.631332558173440  0.0000
  O2     O2        0.891079480383270    0.833866898782104    0.651043514500075  0.0000
  O3     O3        0.620239557608466    0.150843540468184    0.634385439335204  0.0000
  O3     O3        0.129242995719190    0.855773966436464    0.380493902637562  0.0000
  O2     O2        0.397794416377911    0.153355374082129    0.351989134956413  0.0000
  O3     O3        0.980927588767551    0.973275786742596    0.484955811250509  0.0000
  O3     O3        0.482921202005191    0.002821050397629    0.525722552230034  0.0000
  O3     O3        0.008437770912572    0.952035547531029    0.223573526109738  0.0000
  O2     O2        0.528963648990802    0.996800298485629    0.284452341511361  0.0000
  O2     O2        0.024318930883638    0.984973096466330    0.726051276261448  0.0000
  O3     O3        0.506060865133421    0.010198776790339    0.791305452801088  0.0000
  O2     O2        0.613856790767112    0.156833736428094    0.116159160533837  0.0000
  O2     O2        0.874469780686101    0.869556150929482    0.114542431660960  0.0000
  O2     O2        0.379638550348296    0.148596194770042    0.887223491068028  0.0000
  O2     O2        0.117717658439234    0.842616982513135    0.892727745503620  0.0000
  O2     O2        0.398293608197070    0.807226359453679    0.886636261940696  0.0000
  O2     O2        0.098312340395493    0.189809342418219    0.888936214497533  0.0000
  O2     O2        0.598791036455821    0.808693710728891    0.108294192005473  0.0000
  O3     O3        0.912100388138812    0.192349265225510    0.135514601961623  0.0000
  O2     O2        0.482502135061089    0.013175260353077    0.041893028979061  0.0000
  O2     O2        0.987021471686925    0.983552338577233    0.972236382980887  0.0000
  O3     O3        0.140874882976116    0.528669497567007    0.312924878873245  0.0000
  O2     O2        0.369495105682832    0.483425543815325    0.310234729324718  0.0000
  O2     O2        0.865496310572357    0.502262172862742    0.695728303861563  0.0000
  O2     O2        0.644913047514600    0.474936207531543    0.699688392653846  0.0000
  O3     O3        0.254152498091148    0.262552155387928    0.334861535843014  0.0000
  O2     O2        0.263675230449637    0.727590136374923    0.322179425570422  0.0000
  O2     O2        0.760853546074320    0.252858568353073    0.689628462023752  0.0000
  O2     O2        0.748713668824010    0.724808294499134    0.681403198983562  0.0000
  O3     O3        0.144763736294923    0.249125131160877    0.127987722538565  0.0000
  O2     O2        0.359992071521675    0.723859956533200    0.125332978023907  0.0000
  O3     O3        0.862888666990397    0.262854168937857    0.881107033325712  0.0000
  O2     O2        0.645152402057753    0.736223502711160    0.870592969898337  0.0000
  O2     O2        0.843845982188580    0.735918404787502    0.881179991093227  0.0000
  O2     O2        0.660193907115040    0.227221115997400    0.877753805065871  0.0000
  O2     O2        0.159705146552529    0.769623755144725    0.134627883474480  0.0000
  O2     O2        0.337691265714518    0.249576750062137    0.126004411125949  0.0000
  O2     O2        0.634602503804881    0.484185356206315    0.046806686689972  0.0000
  O3     O3        0.867254312996936    0.529100991852872    0.078988481794110  0.0000
  O2     O2        0.364081599820447    0.481482161685798    0.939784550086803  0.0000
  O2     O2        0.133933971370979    0.513259538366066    0.964865883696722  0.0000
  O3     O3        0.752577240464396    0.271408146432469    0.081158223472444  0.0000
  O2     O2        0.742408804507919    0.722406912878686    0.070590684439755  0.0000
  O2     O2        0.242247167051708    0.275564280583726    0.930150708337501  0.0000
  O2     O2        0.254658783833984    0.720288132229295    0.937863770412146  0.0000
