data_c00120.vasp
_audit_creation_method             Generated by GULP
_audit_author_name                 Salvador R. G. Balestra
_symmetry_space_group_name_H-M     'P 1             '
_symmetry_Int_Tables_number        1

loop_
_symmetry_equiv_pos_site_id
_symmetry_equiv_pos_as_xyz
_cell_length_a                       17.2755
_cell_length_b                        7.6357
_cell_length_c                       10.2696
_cell_angle_alpha                   90.0455
_cell_angle_beta                    90.6793
_cell_angle_gamma                   89.7964

loop_
_atom_site_label
_atom_site_type_symbol
_atom_site_fract_x
_atom_site_fract_y
_atom_site_fract_z
_atom_site_charge
  Ge     Ge        0.052090000000021    0.000000000000000    0.372269999999958  0.0000
  Ge     Ge        0.943532293596041    0.998040667420468    0.634485272625819  0.0000
  Ge     Ge        0.652257041548983    0.336211658848036    0.029175415037828  0.0000
  Ge     Ge        0.165674380311877    0.301138312295824    0.963384087748344  0.0000
  Si     Si        0.451392069458986    0.006346491075427    0.361756534123703  0.0000
  Si     Si        0.544693032812222    0.013348347214474    0.628331051499146  0.0000
  Si     Si        0.557924549806249    0.021413302196317    0.120065891768970  0.0000
  Si     Si        0.944408011049800    0.013176440668647    0.121913857321380  0.0000
  Si     Si        0.443272486053296    0.016200810628569    0.879979938077124  0.0000
  Si     Si        0.053016397193544    0.012147213760936    0.888352325667397  0.0000
  Si     Si        0.169850436706392    0.287864565920996    0.270340642355603  0.0000
  Si     Si        0.338150395118979    0.716244980121690    0.276482679192132  0.0000
  Si     Si        0.825879708066175    0.291114713990635    0.712806776756637  0.0000
  Si     Si        0.658384148044882    0.721579971216145    0.712770136219240  0.0000
  Si     Si        0.836441188142043    0.694170932035977    0.701559499677683  0.0000
  Si     Si        0.647179906789679    0.318002068678638    0.719911359192300  0.0000
  Si     Si        0.159867965617075    0.697343320425433    0.275675880668011  0.0000
  Si     Si        0.346213577493603    0.314540847027401    0.268825792345188  0.0000
  Si     Si        0.846955411496463    0.706349336799950    0.003812157008049  0.0000
  Si     Si        0.346050241443974    0.330370963390750    0.961716049880242  0.0000
  Si     Si        0.154651985214056    0.706740613925753    0.975863226802018  0.0000
  Si     Si        0.334722118633156    0.725702580765482    0.972850691988983  0.0000
  Si     Si        0.668073346387599    0.739793245938853    0.017213664691586  0.0000
  Si     Si        0.834785491578734    0.306053940165754    0.016726875493486  0.0000
  O3     O3        0.115916726595356    0.171579177004304    0.358542438887903  0.0000
  O2     O2        0.390259879833463    0.847395208991617    0.361503477035513  0.0000
  O3     O3        0.875459316564153    0.165116333618638    0.624494182382219  0.0000
  O2     O2        0.605669475885363    0.852740817607593    0.628072660465478  0.0000
  O3     O3        0.892545172907699    0.804290928083985    0.612407352517171  0.0000
  O2     O2        0.589648065428525    0.197664171893798    0.634823040395381  0.0000
  O3     O3        0.101906231190069    0.803128778656649    0.364640574117821  0.0000
  O2     O2        0.407563886642424    0.190860721208115    0.341780576058378  0.0000
  O1     O1        0.015404883583570    0.016673638534027    0.525782638015342  0.0000
  O2     O2        0.494529383167246    0.008934898124739    0.498404649983854  0.0000
  O3     O3        0.972343858883440    0.007909255380219    0.269892123069240  0.0000
  O2     O2        0.515372155649218    0.975271560053162    0.252472754795723  0.0000
  O3     O3        0.983922454558275    0.005395440759541    0.788179165279617  0.0000
  O2     O2        0.485998189683663    0.990654815532316    0.745760730702588  0.0000
  O3     O3        0.589800377441415    0.217457800103704    0.123624792087839  0.0000
  O2     O2        0.904382371834641    0.828173321830840    0.086258686931854  0.0000
  O2     O2        0.407025812217389    0.211110196595686    0.884783273836037  0.0000
  O2     O2        0.102730250911312    0.832435846349096    0.885664490060615  0.0000
  O2     O2        0.375722002565066    0.871714860540524    0.886742792258226  0.0000
  O3     O3        0.111112132531714    0.170823145887679    0.862265174655699  0.0000
  O2     O2        0.631976539471848    0.894268527082337    0.102791597897534  0.0000
  O2     O2        0.885648998580864    0.175384929322037    0.104347293523463  0.0000
  O2     O2        0.500957429371168    0.984782453714081    0.999615599087095  0.0000
  O2     O2        0.019129109134277    0.043985736150363    0.033195509201627  0.0000
  O2     O2        0.143965602932209    0.490577180479219    0.283434225438075  0.0000
  O2     O2        0.365956696361460    0.516696669287658    0.301270279431627  0.0000
  O2     O2        0.853161868871640    0.488920951555653    0.684066240571777  0.0000
  O2     O2        0.628969918196456    0.522731779044824    0.693217925363718  0.0000
  O2     O2        0.259801214330018    0.269468154711644    0.315698372064732  0.0000
  O2     O2        0.248761553652855    0.737290347184111    0.317266315011641  0.0000
  O2     O2        0.734944113144478    0.273603311984224    0.679403338977380  0.0000
  O2     O2        0.746882079139167    0.736783218816081    0.666440328692501  0.0000
  O3     O3        0.162335434029160    0.227172492349846    0.121653857524769  0.0000
  O2     O2        0.346885671008548    0.767587012196968    0.125300190216434  0.0000
  O2     O2        0.838025824256204    0.246571179089493    0.865856128180309  0.0000
  O2     O2        0.653541202362261    0.775234970306634    0.863944665039633  0.0000
  O2     O2        0.854145331782017    0.751325952651779    0.851291214006401  0.0000
  O3     O3        0.634743061265377    0.274239334680028    0.870097756551238  0.0000
  O2     O2        0.145107094650291    0.761489886762321    0.127138256230790  0.0000
  O2     O2        0.350722279481908    0.281616832592714    0.114498656543451  0.0000
  O3     O3        0.631838793201258    0.554627203117597    0.053686907792712  0.0000
  O2     O2        0.868681457785617    0.503317489665482    0.030439423267727  0.0000
  O2     O2        0.369401086990759    0.533579002448374    0.940939398075232  0.0000
  O3     O3        0.128419001097613    0.510330951868649    0.952292916893088  0.0000
  O3     O3        0.748156106613565    0.299618551404578    0.067556892029414  0.0000
  O2     O2        0.759423500341041    0.739023059612930    0.049124356270593  0.0000
  O3     O3        0.260076404691834    0.297747289394132    0.910403625053124  0.0000
  O2     O2        0.244195668579737    0.727513766778377    0.936352808832395  0.0000
