data_c00153.vasp
_audit_creation_method             Generated by GULP
_audit_author_name                 Salvador R. G. Balestra
_symmetry_space_group_name_H-M     'P 1             '
_symmetry_Int_Tables_number        1

loop_
_symmetry_equiv_pos_site_id
_symmetry_equiv_pos_as_xyz
_cell_length_a                       17.3357
_cell_length_b                        7.6490
_cell_length_c                       10.1258
_cell_angle_alpha                   91.0709
_cell_angle_beta                    89.9131
_cell_angle_gamma                   88.8071

loop_
_atom_site_label
_atom_site_type_symbol
_atom_site_fract_x
_atom_site_fract_y
_atom_site_fract_z
_atom_site_charge
  Ge     Ge        0.052090000000021    0.000000000000000    0.372269999999958  0.0000
  Ge     Ge        0.555269883700463    0.978995302229206    0.623711862090608  0.0000
  Ge     Ge        0.159552624351180    0.303832336088625    0.277089573000627  0.0000
  Ge     Ge        0.658125155988577    0.291570912260566    0.009769753862371  0.0000
  Si     Si        0.453523566100703    0.967893939748945    0.363709879942760  0.0000
  Si     Si        0.954846868184808    0.957717613259057    0.636591121374732  0.0000
  Si     Si        0.559246658843512    0.992787155655834    0.122442621379613  0.0000
  Si     Si        0.945021096349095    0.966598680341135    0.123548635968788  0.0000
  Si     Si        0.448155986148064    0.954950967963252    0.883382275409042  0.0000
  Si     Si        0.059356722473586    0.978156978160398    0.888564543989910  0.0000
  Si     Si        0.351333203141619    0.665539072645583    0.259923102457340  0.0000
  Si     Si        0.841536266494700    0.259604140050288    0.703877340224987  0.0000
  Si     Si        0.671270069828220    0.684650015225006    0.698635852223349  0.0000
  Si     Si        0.849167545701826    0.659120229759703    0.703530089397872  0.0000
  Si     Si        0.664328613171088    0.277957199550887    0.697492021402396  0.0000
  Si     Si        0.174360483588118    0.710356860589072    0.264690089967348  0.0000
  Si     Si        0.340010371210547    0.266319221095848    0.268540780108003  0.0000
  Si     Si        0.846274984924575    0.664513972371820    0.011594737910209  0.0000
  Si     Si        0.336311881845175    0.255678453843682    0.956705499682285  0.0000
  Si     Si        0.171093691692256    0.682686811766016    0.954968297735624  0.0000
  Si     Si        0.347945593204103    0.650601685874457    0.950261432794224  0.0000
  Si     Si        0.159548169476860    0.284408840379804    0.961282584168712  0.0000
  Si     Si        0.667422564892101    0.699255018126565    0.004485741693609  0.0000
  Si     Si        0.839106379930785    0.268037038402208    0.015362010117924  0.0000
  O1     O1        0.090298586177049    0.203355155155466    0.365244947608955  0.0000
  O2     O2        0.410207805049606    0.786572635246013    0.338374742875510  0.0000
  O2     O2        0.896041803101098    0.123814479674605    0.622871537340360  0.0000
  O3     O3        0.619312181307502    0.802885818003236    0.606220473938307  0.0000
  O2     O2        0.906186490027848    0.779828701067739    0.622060929491696  0.0000
  O3     O3        0.607945381556360    0.167103873209327    0.606684748858593  0.0000
  O3     O3        0.130656484960890    0.863982932435631    0.341062079895305  0.0000
  O2     O2        0.396795200954950    0.133526918985633    0.342210132559208  0.0000
  O3     O3        0.020706772459112    0.959599633850639    0.529583382088232  0.0000
  O3     O3        0.481231963669296    0.971489764887208    0.512912348199283  0.0000
  O3     O3        0.972927673958973    0.970023953697302    0.272575605483086  0.0000
  O2     O2        0.529799891995615    0.976195466369010    0.272350212506632  0.0000
  O2     O2        0.993973791883282    0.967611099937933    0.779780591127625  0.0000
  O3     O3        0.513217900910360    0.972586519337759    0.777087498171784  0.0000
  O3     O3        0.594553341433725    0.182024588774027    0.106122540182493  0.0000
  O2     O2        0.897739807003248    0.790154424695479    0.100599840953050  0.0000
  O2     O2        0.385272314406463    0.112998806282240    0.873086073131717  0.0000
  O2     O2        0.120244806379219    0.816539930885740    0.869335193094340  0.0000
  O2     O2        0.404435214334484    0.770305147985434    0.866238645191980  0.0000
  O2     O2        0.103171819450937    0.161531896124983    0.875919313228579  0.0000
  O2     O2        0.625935810013663    0.847336986428848    0.094050431584201  0.0000
  O2     O2        0.892258823260589    0.137065328877690    0.097321440495381  0.0000
  O2     O2        0.486680715228688    0.964428086695465    0.027501841995011  0.0000
  O2     O2        0.021008198574665    0.966290670132531    0.032615623583125  0.0000
  O3     O3        0.141062550960884    0.524305538694742    0.300225000351993  0.0000
  O2     O2        0.370021280628651    0.463598581744038    0.292939303266651  0.0000
  O2     O2        0.869667655692961    0.455288689583649    0.674228607207846  0.0000
  O2     O2        0.646089742939409    0.483954272076529    0.684712747726966  0.0000
  O3     O3        0.253790313486518    0.252430449150854    0.322048719956446  0.0000
  O2     O2        0.264469427082507    0.714090801737350    0.305023771901407  0.0000
  O2     O2        0.753500971098441    0.237971152979779    0.656778951757829  0.0000
  O2     O2        0.761308904185550    0.700390405386526    0.660689560537108  0.0000
  O3     O3        0.149240714003485    0.241312952763418    0.113343767242575  0.0000
  O2     O2        0.359103524358774    0.697140954581778    0.104186596272812  0.0000
  O2     O2        0.844980155429015    0.221923235010511    0.859601909984370  0.0000
  O2     O2        0.659044860460405    0.749899349294631    0.850647435153681  0.0000
  O2     O2        0.859812873927802    0.704213886824458    0.858200709722842  0.0000
  O3     O3        0.650483670910530    0.221918583119820    0.847825493866357  0.0000
  O2     O2        0.165947899634532    0.738980544576250    0.107893625846638  0.0000
  O2     O2        0.341660881894427    0.221520691400500    0.112404883464998  0.0000
  O3     O3        0.632924464163773    0.510754395296200    0.026754731427858  0.0000
  O2     O2        0.869806630795488    0.464228885597685    0.041902567902688  0.0000
  O2     O2        0.369076213180046    0.446624336437632    0.922778361141802  0.0000
  O2     O2        0.138532995317514    0.487634889377079    0.934509371272716  0.0000
  O3     O3        0.751766143355529    0.255560814855542    0.062113292543807  0.0000
  O2     O2        0.756815851813795    0.695846036796671    0.047100917369640  0.0000
  O2     O2        0.247303609345119    0.244692235895325    0.914126845764560  0.0000
  O2     O2        0.259718734271547    0.688915474184557    0.907212197347278  0.0000
