data_c00162.vasp
_audit_creation_method             Generated by GULP
_audit_author_name                 Salvador R. G. Balestra
_symmetry_space_group_name_H-M     'P 1             '
_symmetry_Int_Tables_number        1

loop_
_symmetry_equiv_pos_site_id
_symmetry_equiv_pos_as_xyz
_cell_length_a                       17.3176
_cell_length_b                        7.6510
_cell_length_c                       10.2398
_cell_angle_alpha                   90.2226
_cell_angle_beta                    89.7117
_cell_angle_gamma                   89.6785

loop_
_atom_site_label
_atom_site_type_symbol
_atom_site_fract_x
_atom_site_fract_y
_atom_site_fract_z
_atom_site_charge
  Ge     Ge        0.052090000000021    0.000000000000000    0.372269999999958  0.0000
  Ge     Ge        0.552930887328047    0.003352655767227    0.624836714378174  0.0000
  Ge     Ge        0.341377486348046    0.713069722666373    0.291738163250538  0.0000
  Ge     Ge        0.851417813695836    0.679258541876793    0.724197306303008  0.0000
  Si     Si        0.457219248995178    0.003595798341568    0.360551582797688  0.0000
  Si     Si        0.956198312722658    0.984490899288950    0.637477823414788  0.0000
  Si     Si        0.553822689687814    0.009794866356182    0.100748283262193  0.0000
  Si     Si        0.942514379439776    0.003491521766107    0.116836082676905  0.0000
  Si     Si        0.439065007403115    0.004737327454141    0.865577992283389  0.0000
  Si     Si        0.057937592739734    0.001714167303326    0.883517716025008  0.0000
  Si     Si        0.169795693449818    0.286816808174668    0.291046370684484  0.0000
  Si     Si        0.837929490891163    0.273070008254820    0.736778711219453  0.0000
  Si     Si        0.670900212571677    0.709992741400110    0.720419056764587  0.0000
  Si     Si        0.661901804722313    0.303072342176168    0.729817989485365  0.0000
  Si     Si        0.160211451018938    0.692377336743834    0.298790242205191  0.0000
  Si     Si        0.349043195426987    0.303426790964057    0.282491111826476  0.0000
  Si     Si        0.654868979318030    0.318534291357285    0.033960454712617  0.0000
  Si     Si        0.845090692202147    0.691702792803327    0.038254558610258  0.0000
  Si     Si        0.343024230206078    0.312097304248670    0.978132317718393  0.0000
  Si     Si        0.157162277626448    0.696087364470153    0.993414451741965  0.0000
  Si     Si        0.335481693424003    0.713159722478283    0.980204198166700  0.0000
  Si     Si        0.163800476905743    0.294961646528529    0.988709947163101  0.0000
  Si     Si        0.666654818851515    0.717721570156909    0.025250629444755  0.0000
  Si     Si        0.831574079977926    0.297828835115830    0.046265370750362  0.0000
  O3     O3        0.121381493588745    0.161494912269274    0.381530023665464  0.0000
  O3     O3        0.401393816558099    0.839968754761547    0.383656956087967  0.0000
  O2     O2        0.887269428955437    0.116955194152414    0.675535665073006  0.0000
  O3     O3        0.613505969028023    0.825636377410353    0.636766132287303  0.0000
  O3     O3        0.920557412738333    0.792207148497578    0.639230800165313  0.0000
  O3     O3        0.602010837106722    0.195395377559613    0.647456925061758  0.0000
  O3     O3        0.098680249770240    0.800462144150004    0.382483804754330  0.0000
  O2     O2        0.403620515742299    0.176907907676453    0.365283811627124  0.0000
  O3     O3        0.986092732053543    0.028425327978119    0.494802661892643  0.0000
  O3     O3        0.523617210067326    0.010809611360959    0.464847141169540  0.0000
  O3     O3        0.003799065127891    0.021700488647439    0.228086779041465  0.0000
  O2     O2        0.494386037252289    0.983487315270400    0.216925884263853  0.0000
  O2     O2        0.028847963266060    0.000081246153410    0.735186453344017  0.0000
  O3     O3        0.471096229963902    0.992294958282748    0.720394543655823  0.0000
  O2     O2        0.595120179008740    0.198882664896489    0.114232269995700  0.0000
  O2     O2        0.898584402268772    0.817689283816665    0.125290232891472  0.0000
  O2     O2        0.394460760219020    0.189079492958373    0.885260058667130  0.0000
  O2     O2        0.100926191089803    0.818350558398794    0.910436543781181  0.0000
  O2     O2        0.381370851649748    0.842964813190919    0.886023353736791  0.0000
  O2     O2        0.115334090090920    0.165320773713269    0.898326405117499  0.0000
  O2     O2        0.617625541647053    0.856046709905203    0.108947117885905  0.0000
  O2     O2        0.879140212197778    0.158494819540212    0.129925059877984  0.0000
  O2     O2        0.511385281772776    0.992400205642154    0.962594613766890  0.0000
  O2     O2        0.984612730246223    0.023972366817070    0.977388423244757  0.0000
  O2     O2        0.146120581133439    0.487002600894217    0.319007104848116  0.0000
  O3     O3        0.369151085781502    0.499646546106272    0.317194279397646  0.0000
  O3     O3        0.867416503299289    0.460258839378787    0.691168976789924  0.0000
  O2     O2        0.649881271587462    0.507124827295039    0.701125016781828  0.0000
  O2     O2        0.260415842901661    0.261905554775437    0.319319198515497  0.0000
  O3     O3        0.246460483301338    0.741244713610141    0.339373825461327  0.0000
  O2     O2        0.749328108923589    0.247122488137159    0.692041837556683  0.0000
  O3     O3        0.759034647290866    0.737950012474616    0.678590135623589  0.0000
  O2     O2        0.152875569550459    0.239687793588347    0.139308971574999  0.0000
  O3     O3        0.349843066799548    0.765555559059652    0.128597730472070  0.0000
  O2     O2        0.841715086438551    0.263387239469540    0.893066862750414  0.0000
  O2     O2        0.660521140688272    0.763351776944595    0.872539927462489  0.0000
  O3     O3        0.863407991480065    0.724164097493405    0.887760346432203  0.0000
  O2     O2        0.647815454998359    0.263851733671046    0.882787100299515  0.0000
  O2     O2        0.148414626562400    0.743205524350814    0.146139822773426  0.0000
  O2     O2        0.361339525900606    0.266736132931243    0.128021312377261  0.0000
  O2     O2        0.634227030894032    0.523078084445262    0.053513847360604  0.0000
  O2     O2        0.863055038440054    0.491623299030594    0.078837942066334  0.0000
  O2     O2        0.363938586594259    0.514287515489330    0.952077063114300  0.0000
  O2     O2        0.134480275737439    0.494001638927269    0.967873073018047  0.0000
  O2     O2        0.741496325089700    0.283022160546570    0.084849819997573  0.0000
  O2     O2        0.755297626678417    0.732050321693501    0.068499317202463  0.0000
  O2     O2        0.253256863555045    0.279073301795451    0.947810649711891  0.0000
  O2     O2        0.244718943415627    0.728681746624476    0.947890235613142  0.0000
