data_c00176.vasp
_audit_creation_method             Generated by GULP
_audit_author_name                 Salvador R. G. Balestra
_symmetry_space_group_name_H-M     'P 1             '
_symmetry_Int_Tables_number        1

loop_
_symmetry_equiv_pos_site_id
_symmetry_equiv_pos_as_xyz
_cell_length_a                       17.3061
_cell_length_b                        7.6480
_cell_length_c                       10.2349
_cell_angle_alpha                   90.0513
_cell_angle_beta                    89.8198
_cell_angle_gamma                   89.9571

loop_
_atom_site_label
_atom_site_type_symbol
_atom_site_fract_x
_atom_site_fract_y
_atom_site_fract_z
_atom_site_charge
  Ge     Ge        0.052090000000021    0.000000000000000    0.372269999999958  0.0000
  Ge     Ge        0.551462036732452    0.011330319730770    0.609595692166114  0.0000
  Ge     Ge        0.655697326346185    0.326719444527270    0.017900887294059  0.0000
  Ge     Ge        0.166949621496739    0.299998142028050    0.963598560725120  0.0000
  Si     Si        0.451012046009341    0.006153738703854    0.344718328058558  0.0000
  Si     Si        0.950128223532324    0.000042228273557    0.635809581332671  0.0000
  Si     Si        0.555717362527273    0.016014584546180    0.095596329112188  0.0000
  Si     Si        0.945256935475410    0.012951354300865    0.121120670571379  0.0000
  Si     Si        0.443731291539897    0.016302163269981    0.859457982464115  0.0000
  Si     Si        0.056580374558830    0.009251223356300    0.883805106634329  0.0000
  Si     Si        0.169263969930592    0.288902322179899    0.271018138818834  0.0000
  Si     Si        0.338126669559024    0.715320571423602    0.275559761247650  0.0000
  Si     Si        0.837599098495553    0.296840730413047    0.712364247117301  0.0000
  Si     Si        0.667925179129562    0.719419764130936    0.708365851435406  0.0000
  Si     Si        0.845267814462179    0.697185996390673    0.705034964499168  0.0000
  Si     Si        0.659846496060793    0.311536265269318    0.710511383182706  0.0000
  Si     Si        0.160131245201382    0.697571633811477    0.275289124244888  0.0000
  Si     Si        0.346151762835496    0.314927386067056    0.268755552892227  0.0000
  Si     Si        0.847047840674028    0.704650162476875    0.010634696481901  0.0000
  Si     Si        0.347707166704240    0.327873831614501    0.960623286804638  0.0000
  Si     Si        0.157296783601202    0.705731563298618    0.974424536750814  0.0000
  Si     Si        0.336922223996280    0.723456215996746    0.970259065107283  0.0000
  Si     Si        0.668546285545803    0.733287081369665    0.010964667844574  0.0000
  Si     Si        0.837299282642518    0.307858022906572    0.020116066212832  0.0000
  O3     O3        0.116011871082187    0.171827535806047    0.361377662136178  0.0000
  O2     O2        0.389582109500395    0.847497123908775    0.360740728434857  0.0000
  O2     O2        0.890707149076183    0.163238981006731    0.631826609549582  0.0000
  O3     O3        0.613760696999479    0.835918562635796    0.620144518674693  0.0000
  O2     O2        0.901631454931472    0.819730055342216    0.619946973512601  0.0000
  O3     O3        0.602744593573682    0.203699039088529    0.620318884289612  0.0000
  O3     O3        0.102024084103022    0.804371506899447    0.364521501922282  0.0000
  O2     O2        0.405037286608242    0.190555247076777    0.345644762915016  0.0000
  O3     O3        0.013835779310679    0.016246634110772    0.526776252108619  0.0000
  O3     O3        0.513935896713729    0.003969916799131    0.454999990340087  0.0000
  O3     O3        0.975057410138327    0.010188418555913    0.267418535169591  0.0000
  O2     O2        0.494819792163474    0.977094357734992    0.207960030731679  0.0000
  O2     O2        0.991882353082468    0.998471154862033    0.775297640268140  0.0000
  O3     O3        0.473386519712258    0.999963875536601    0.713412855762177  0.0000
  O3     O3        0.591795613634082    0.207238714626180    0.110983730830883  0.0000
  O2     O2        0.902529384110713    0.829943549596719    0.092142394228846  0.0000
  O2     O2        0.407751821456880    0.209089965196106    0.880892978037657  0.0000
  O2     O2        0.106064885033462    0.830619289830644    0.884187910411113  0.0000
  O2     O2        0.379487446686647    0.867942027958132    0.884185210388939  0.0000
  O3     O3        0.113958851867150    0.169618312924765    0.861047726055933  0.0000
  O2     O2        0.626124403609588    0.877012884208994    0.099792376330961  0.0000
  O2     O2        0.887375232342834    0.175534565579548    0.105390954355471  0.0000
  O2     O2        0.515667324879844    0.990253111688201    0.955318432232353  0.0000
  O2     O2        0.017831078702296    0.040048201922241    0.025500033506315  0.0000
  O2     O2        0.143505245909138    0.491283787975037    0.283110856562450  0.0000
  O2     O2        0.366082894421700    0.516652584640624    0.301612946874550  0.0000
  O2     O2        0.865448718869905    0.493965661011067    0.679475335755852  0.0000
  O2     O2        0.642331413557579    0.517682899263308    0.698423785873157  0.0000
  O2     O2        0.258990719919024    0.271561420712899    0.313692923591544  0.0000
  O2     O2        0.248662040654593    0.735957868776442    0.317066406973285  0.0000
  O2     O2        0.748785668361410    0.272606258905764    0.669551518975778  0.0000
  O2     O2        0.757213514200327    0.736448869113426    0.663538426334399  0.0000
  O3     O3        0.160860074819084    0.226326333434577    0.122342957516477  0.0000
  O2     O2        0.347420491553485    0.764332031996526    0.123227773326828  0.0000
  O2     O2        0.843430799418538    0.259600243766433    0.866860036673412  0.0000
  O2     O2        0.660343195428061    0.783372577986632    0.858246747489076  0.0000
  O2     O2        0.856901813412568    0.743458637643250    0.857256878091748  0.0000
  O3     O3        0.645989206736183    0.254093903413506    0.859214109024049  0.0000
  O2     O2        0.146964441472634    0.761561974440026    0.126127286589406  0.0000
  O2     O2        0.353325079956203    0.281223448937466    0.113995294375131  0.0000
  O3     O3        0.632541190697470    0.544215380348645    0.035699482527154  0.0000
  O2     O2        0.869845914932699    0.504417326600866    0.041904700687746  0.0000
  O2     O2        0.370933980145677    0.531026959355502    0.937970033572603  0.0000
  O3     O3        0.130955706657385    0.509389567405734    0.952142500836892  0.0000
  O3     O3        0.749814832230869    0.295955375978995    0.067096936905274  0.0000
  O2     O2        0.758348866955064    0.735105470725862    0.052087175814856  0.0000
  O3     O3        0.261816299909813    0.294570839571024    0.911905828169678  0.0000
  O2     O2        0.246848327138524    0.726846350889299    0.933465640033919  0.0000
