data_c00113.vasp
_audit_creation_method             Generated by GULP
_audit_author_name                 Salvador R. G. Balestra
_symmetry_space_group_name_H-M     'P 1             '
_symmetry_Int_Tables_number        1

loop_
_symmetry_equiv_pos_site_id
_symmetry_equiv_pos_as_xyz
_cell_length_a                       17.3050
_cell_length_b                        7.6316
_cell_length_c                       10.2400
_cell_angle_alpha                   88.9949
_cell_angle_beta                    91.2380
_cell_angle_gamma                   89.3727

loop_
_atom_site_label
_atom_site_type_symbol
_atom_site_fract_x
_atom_site_fract_y
_atom_site_fract_z
_atom_site_charge
  Ge     Ge        0.052090000000021    0.000000000000000    0.372269999999958  0.0000
  Ge     Ge        0.946390701638763    0.002258715544324    0.635840575130936  0.0000
  Ge     Ge        0.351666948421918    0.674954255277972    0.278201486826461  0.0000
  Ge     Ge        0.150623537208406    0.333081963950265    0.957730968656719  0.0000
  Si     Si        0.455211513850395    0.980568155110588    0.359620602578564  0.0000
  Si     Si        0.545634036442452    0.009868652253934    0.625185749567929  0.0000
  Si     Si        0.558565824993088    0.004792476442692    0.114140441785702  0.0000
  Si     Si        0.940517014119688    0.002586227356948    0.126791739251798  0.0000
  Si     Si        0.441265317328394    0.008940988356543    0.875459019843769  0.0000
  Si     Si        0.051018907616353    0.021098719398242    0.893926729758110  0.0000
  Si     Si        0.158682505001177    0.301531671872616    0.265906562369939  0.0000
  Si     Si        0.836865013590508    0.308144516821717    0.709193452397960  0.0000
  Si     Si        0.651105035402283    0.701273051812874    0.706163075484341  0.0000
  Si     Si        0.829169015900243    0.713980095856201    0.703133005971639  0.0000
  Si     Si        0.657843210699349    0.298441021246707    0.711403339319113  0.0000
  Si     Si        0.171137948149027    0.708970479132296    0.278663352997781  0.0000
  Si     Si        0.334779159327465    0.267917210173640    0.259456174586143  0.0000
  Si     Si        0.662770816908596    0.299541998523123    0.015653833613664  0.0000
  Si     Si        0.835193045784761    0.712989164776354    0.006939439372778  0.0000
  Si     Si        0.330180303950935    0.302889041309507    0.950695844102613  0.0000
  Si     Si        0.167926454996971    0.736754025508562    0.974919933050389  0.0000
  Si     Si        0.346268605259230    0.697263627446437    0.966980605146304  0.0000
  Si     Si        0.656650105423939    0.698579388065656    0.011160973705555  0.0000
  Si     Si        0.841939218646654    0.310213881016118    0.011943172620458  0.0000
  O3     O3        0.100175053308222    0.194481316721222    0.352760597984997  0.0000
  O3     O3        0.420844651131627    0.787417604785420    0.365164502741568  0.0000
  O3     O3        0.892690406827514    0.195568135438459    0.622941739113020  0.0000
  O2     O2        0.592799463947216    0.825965243817405    0.622482782483513  0.0000
  O3     O3        0.880811877641587    0.833841546424583    0.613970420376269  0.0000
  O2     O2        0.605652168507950    0.169686197976842    0.626602472158245  0.0000
  O3     O3        0.114780029548506    0.824051792303443    0.363010784953250  0.0000
  O2     O2        0.383156562135570    0.109141106128143    0.324690764980200  0.0000
  O1     O1        0.018585680252342    0.998746058155052    0.528224420384724  0.0000
  O2     O2        0.491584223941012    0.030637572540038    0.498298878568020  0.0000
  O3     O3        0.969688752237546    0.985662210862346    0.274468054073659  0.0000
  O2     O2        0.522704494357551    0.001407141267183    0.255812477111962  0.0000
  O3     O3        0.987792957761988    0.971104501910161    0.788966332070408  0.0000
  O2     O2        0.492107294745696    0.018272142193934    0.749138108827857  0.0000
  O2     O2        0.617474476100880    0.166378070350137    0.107558171668084  0.0000
  O2     O2        0.884781097014769    0.840424620396054    0.096244428710237  0.0000
  O2     O2        0.379272306245698    0.167493193592300    0.867239608156107  0.0000
  O2     O2        0.125672811079355    0.891157445757317    0.892026349962040  0.0000
  O2     O2        0.398245699691941    0.822878149500027    0.878040345764278  0.0000
  O3     O3        0.083117483644254    0.215597534517146    0.869856898718032  0.0000
  O2     O2        0.603380316853718    0.821397490214489    0.096658938988230  0.0000
  O2     O2        0.895702509344052    0.188074888865331    0.104871849482888  0.0000
  O2     O2        0.492312156885492    0.033871312242293    0.005419504893359  0.0000
  O2     O2        0.015588097044951    0.998345579762920    0.037907771797138  0.0000
  O2     O2        0.143491286217332    0.508151099466365    0.283608531843149  0.0000
  O3     O3        0.370288703938149    0.453054834731685    0.296749142292879  0.0000
  O2     O2        0.852576545301078    0.512194954450901    0.682371532314369  0.0000
  O2     O2        0.632639284013580    0.498770432333959    0.677800185589789  0.0000
  O2     O2        0.247208705771795    0.255279045750501    0.310251386004358  0.0000
  O3     O3        0.259175920465980    0.719554852528132    0.329348724609601  0.0000
  O2     O2        0.747176393013391    0.266906552107598    0.677086297428311  0.0000
  O2     O2        0.738642306578710    0.742780497194162    0.667039624183563  0.0000
  O3     O3        0.145417385955890    0.253536493200387    0.115837348312217  0.0000
  O3     O3        0.361976004372800    0.739288423319326    0.117048399958368  0.0000
  O2     O2        0.855554494337157    0.259407231616577    0.861807353873620  0.0000
  O2     O2        0.640019340766154    0.741335050224052    0.858689614599297  0.0000
  O2     O2        0.843839777894299    0.764353709937929    0.854915729649923  0.0000
  O2     O2        0.646121484315535    0.255860793985486    0.864424490158088  0.0000
  O2     O2        0.166982216067370    0.778773676978680    0.128724527404256  0.0000
  O2     O2        0.331184342926210    0.247981262456883    0.103228318083766  0.0000
  O2     O2        0.635351318648793    0.497662293790005    0.044169954352890  0.0000
  O2     O2        0.864005136691886    0.512864276176880    0.033764701347418  0.0000
  O2     O2        0.367635791405620    0.495827718188848    0.936144447563254  0.0000
  O3     O3        0.127322833429451    0.553170997146529    0.947306483907608  0.0000
  O2     O2        0.753455354842698    0.278664643481623    0.048596342269206  0.0000
  O2     O2        0.746064823289976    0.732574243817823    0.046450998427568  0.0000
  O3     O3        0.242663660560766    0.304756859333905    0.898954419780475  0.0000
  O2     O2        0.256180654293865    0.728115272828848    0.929614365706583  0.0000
