data_c00197.vasp
_audit_creation_method             Generated by GULP
_audit_author_name                 Salvador R. G. Balestra
_symmetry_space_group_name_H-M     'P 1             '
_symmetry_Int_Tables_number        1

loop_
_symmetry_equiv_pos_site_id
_symmetry_equiv_pos_as_xyz
_cell_length_a                       17.0202
_cell_length_b                        7.5654
_cell_length_c                       10.4780
_cell_angle_alpha                   90.1535
_cell_angle_beta                    90.9730
_cell_angle_gamma                   89.9885

loop_
_atom_site_label
_atom_site_type_symbol
_atom_site_fract_x
_atom_site_fract_y
_atom_site_fract_z
_atom_site_charge
  Ge     Ge        0.052090000000021    0.000000000000000    0.372269999999958  0.0000
  Ge     Ge        0.561752018620941    0.976035134739876    0.117085956867914  0.0000
  Ge     Ge        0.446343748148064    0.977343624936048    0.870553300755190  0.0000
  Ge     Ge        0.681119405340366    0.253346785982735    0.020845764348695  0.0000
  Si     Si        0.453954595605511    0.978686725588425    0.365396855451439  0.0000
  Si     Si        0.952752721104939    0.996188837683267    0.635403045245192  0.0000
  Si     Si        0.551012736823583    0.979698440575007    0.623542582403301  0.0000
  Si     Si        0.949102140250160    0.993344836452838    0.114138769024463  0.0000
  Si     Si        0.059699185513509    0.985057466933452    0.885303054185172  0.0000
  Si     Si        0.155179705635542    0.309351256147259    0.282356593033447  0.0000
  Si     Si        0.355291113419679    0.667419016307485    0.274291268671807  0.0000
  Si     Si        0.850058565425229    0.307718698043279    0.715248467735690  0.0000
  Si     Si        0.653756801421688    0.673771813150570    0.724980815095311  0.0000
  Si     Si        0.834045220665372    0.711289320222769    0.718051052179826  0.0000
  Si     Si        0.671144534616452    0.262581758267671    0.719471448689512  0.0000
  Si     Si        0.174707552685452    0.716285536744214    0.274873773248975  0.0000
  Si     Si        0.336756198047917    0.261181637047296    0.280047100495170  0.0000
  Si     Si        0.835946943300828    0.710908415480686    0.015921115633070  0.0000
  Si     Si        0.331155019244569    0.254107666592889    0.984192867659036  0.0000
  Si     Si        0.172695588621928    0.704600665989741    0.978892425939771  0.0000
  Si     Si        0.354743430236991    0.655179919813935    0.978333443001211  0.0000
  Si     Si        0.149177882822503    0.304439833288858    0.987936412568866  0.0000
  Si     Si        0.653503593628884    0.657029183151535    0.019121935520783  0.0000
  Si     Si        0.862089579014661    0.317502286695752    0.016202945495715  0.0000
  O3     O3        0.095942896148704    0.205828750031012    0.370219719196844  0.0000
  O2     O2        0.415500131966699    0.783139174139066    0.359611346315148  0.0000
  O2     O2        0.911874930274359    0.189507476214461    0.638051755014315  0.0000
  O2     O2        0.592012100881720    0.787892327783438    0.642311593334215  0.0000
  O2     O2        0.883737973697146    0.849407496001317    0.636892682955123  0.0000
  O2     O2        0.615747008166727    0.135138495302561    0.634287837883034  0.0000
  O3     O3        0.127315841881570    0.847810913859073    0.361757624934617  0.0000
  O2     O2        0.385377898176545    0.127862752899365    0.371028638595268  0.0000
  O3     O3        0.003429424488029    0.972645020450629    0.511917561416178  0.0000
  O2     O2        0.513430505778919    0.989000222299962    0.483428594741663  0.0000
  O3     O3        0.982734991162826    0.968791422354120    0.253909415726041  0.0000
  O3     O3        0.503128242751579    0.019198593420355    0.241832527382489  0.0000
  O2     O2        0.011231272606319    0.969124529987115    0.755288077583529  0.0000
  O3     O3        0.480029756422996    0.003647023587838    0.718990614256053  0.0000
  O1     O1        0.643716780862518    0.106710090837311    0.123656300539227  0.0000
  O2     O2        0.872327052201489    0.867762207508435    0.100783897654619  0.0000
  O3     O3        0.365346920846704    0.112425267080083    0.890309204936183  0.0000
  O2     O2        0.131219161054582    0.844269006694783    0.884207043470030  0.0000
  O3     O3        0.414656726223946    0.761452585429987    0.893989656649153  0.0000
  O2     O2        0.092133871115972    0.185359679860006    0.899371958840042  0.0000
  O3     O3        0.595097939626717    0.760570236121906    0.109099719772329  0.0000
  O2     O2        0.926907598135862    0.198888281025070    0.089262201922827  0.0000
  O1     O1        0.516052502540337    0.040845300067185    0.977839863298817  0.0000
  O2     O2        0.008637841822773    0.929743145469425    0.006162004343481  0.0000
  O2     O2        0.144803765658269    0.518000525998912    0.301886633913041  0.0000
  O2     O2        0.368074675366844    0.460584937702176    0.303664223197728  0.0000
  O2     O2        0.865359770809363    0.514274700466818    0.686908675304966  0.0000
  O2     O2        0.639512178233276    0.464176379531780    0.707154969819904  0.0000
  O2     O2        0.244916634553824    0.251350038679767    0.313791124122972  0.0000
  O2     O2        0.267319146543141    0.726239273858364    0.308066980684864  0.0000
  O2     O2        0.761305374933621    0.256538053891609    0.671928096915245  0.0000
  O2     O2        0.741658316988814    0.723765996705676    0.681607231658901  0.0000
  O2     O2        0.132926693804829    0.257603294389729    0.135621988011538  0.0000
  O2     O2        0.372915887917848    0.708514038823328    0.126219047949521  0.0000
  O2     O2        0.861701768261605    0.271449454588200    0.865533785347599  0.0000
  O2     O2        0.639467353905037    0.724841155558952    0.872735061156422  0.0000
  O2     O2        0.843452227705000    0.758789976132220    0.867089790739055  0.0000
  O3     O3        0.670278229814922    0.191373233932843    0.862335525902925  0.0000
  O2     O2        0.162071660852938    0.764848372456139    0.125662138794855  0.0000
  O2     O2        0.348205178895532    0.204343965675574    0.132665882577178  0.0000
  O3     O3        0.633610817286776    0.454296675438986    0.032958562597223  0.0000
  O2     O2        0.881009330106569    0.524938676052889    0.041168460979686  0.0000
  O2     O2        0.368747922541196    0.446786887208096    0.958170133484277  0.0000
  O2     O2        0.133747772682863    0.510984151274557    0.958856789168174  0.0000
  O3     O3        0.777611418779786    0.274540558113938    0.068542742229315  0.0000
  O2     O2        0.745315742483617    0.691393315156945    0.053837230835712  0.0000
  O2     O2        0.238435967137988    0.259931930039079    0.956936383454071  0.0000
  O2     O2        0.264272042234046    0.701743218316784    0.944373087499263  0.0000
