data_c00135.vasp
_audit_creation_method             Generated by GULP
_audit_author_name                 Salvador R. G. Balestra
_symmetry_space_group_name_H-M     'P 1             '
_symmetry_Int_Tables_number        1

loop_
_symmetry_equiv_pos_site_id
_symmetry_equiv_pos_as_xyz
_cell_length_a                       17.3976
_cell_length_b                        7.6545
_cell_length_c                        9.9960
_cell_angle_alpha                   89.7202
_cell_angle_beta                    90.3967
_cell_angle_gamma                   90.4955

loop_
_atom_site_label
_atom_site_type_symbol
_atom_site_fract_x
_atom_site_fract_y
_atom_site_fract_z
_atom_site_charge
  Ge     Ge        0.052090000000021    0.000000000000000    0.372269999999958  0.0000
  Ge     Ge        0.550273195057315    0.002618704115408    0.620944085552475  0.0000
  Ge     Ge        0.551802624621117    0.006246043094418    0.103627826414719  0.0000
  Ge     Ge        0.342892734024154    0.335001845928665    0.969394459473342  0.0000
  Si     Si        0.447205473254958    0.012962956818179    0.360411170281802  0.0000
  Si     Si        0.946448661133723    0.006567101757659    0.628267561910516  0.0000
  Si     Si        0.944885142407174    0.011721552553074    0.112796769710334  0.0000
  Si     Si        0.438361544744212    0.025296407769366    0.858464836666518  0.0000
  Si     Si        0.053689700118212    0.009709680386591    0.872557768246539  0.0000
  Si     Si        0.168028510602692    0.293071204833627    0.292477938431590  0.0000
  Si     Si        0.334842656815727    0.719196412541677    0.297093608612538  0.0000
  Si     Si        0.837540541499881    0.301805262559421    0.731567635313110  0.0000
  Si     Si        0.664553672030427    0.711679768657685    0.728921888870310  0.0000
  Si     Si        0.841321015790528    0.702595497587088    0.728315414790553  0.0000
  Si     Si        0.661226177231037    0.302636794003136    0.732361315138917  0.0000
  Si     Si        0.157607155260524    0.695691698549379    0.300815735442781  0.0000
  Si     Si        0.345900391671492    0.320238469280569    0.290145058285133  0.0000
  Si     Si        0.660400507742267    0.311446021732311    0.041874895764345  0.0000
  Si     Si        0.842311316999667    0.702781356881423    0.042449262241906  0.0000
  Si     Si        0.151999542595225    0.706753785149087    0.989967153208414  0.0000
  Si     Si        0.329765343722170    0.737483681242002    0.981628336401687  0.0000
  Si     Si        0.161485900527195    0.304884627050176    0.980187907417089  0.0000
  Si     Si        0.665078624939077    0.713887960923349    0.037904701537612  0.0000
  Si     Si        0.837046815258230    0.307899758761991    0.046474088640500  0.0000
  O3     O3        0.119325869207830    0.166929311775159    0.385478414544111  0.0000
  O2     O2        0.386781862067129    0.852213620211529    0.383315703970444  0.0000
  O2     O2        0.893045448241456    0.173308981012796    0.653458379272818  0.0000
  O3     O3        0.608701494442448    0.823210606793005    0.637415763317811  0.0000
  O2     O2        0.898007525935155    0.827915824658978    0.646316422254956  0.0000
  O3     O3        0.602914449092570    0.191830282428397    0.644611134346274  0.0000
  O3     O3        0.101247037367154    0.805638794524935    0.391160961031250  0.0000
  O2     O2        0.402024007477767    0.196445451544206    0.376853759069161  0.0000
  O3     O3        0.976015649207723    0.015437307088869    0.478496200923834  0.0000
  O3     O3        0.519816098848990    0.003865746473119    0.456036846009738  0.0000
  O3     O3        0.013562236541043    0.018840890910066    0.214489108073823  0.0000
  O3     O3        0.476371536647815    0.995642589770611    0.209489919160817  0.0000
  O2     O2        0.023543683740312    0.008168425935198    0.719969430645527  0.0000
  O3     O3        0.465058502931609    0.994345140606260    0.707958663856841  0.0000
  O3     O3        0.604011407252269    0.197078086486422    0.129997277229101  0.0000
  O2     O2        0.896313964139319    0.831490385536428    0.127894847388815  0.0000
  O3     O3        0.406205336921189    0.219828894590526    0.874453169289176  0.0000
  O2     O2        0.097151982002592    0.828250616886906    0.901374416621940  0.0000
  O2     O2        0.369699786637393    0.895389263800983    0.903057342575783  0.0000
  O2     O2        0.109503988851604    0.176397819350509    0.890945503220005  0.0000
  O3     O3        0.613761174968183    0.833242330248094    0.128569199565149  0.0000
  O2     O2        0.887556654707123    0.174497206443735    0.132956287779104  0.0000
  O3     O3        0.515093582650046    0.994931434421701    0.943917607628366  0.0000
  O2     O2        0.979251520758101    0.025826353713911    0.964099978005546  0.0000
  O2     O2        0.141550980506060    0.490692972523184    0.320178944438221  0.0000
  O2     O2        0.363272149052774    0.522292455170958    0.326599417966874  0.0000
  O2     O2        0.859989897972230    0.501430837380677    0.693815493429420  0.0000
  O2     O2        0.644121778970910    0.507468889204603    0.712736202210214  0.0000
  O2     O2        0.258075364775648    0.273175987280535    0.326197052582768  0.0000
  O2     O2        0.246113060933113    0.739648912301238    0.338713752464797  0.0000
  O2     O2        0.749134702246793    0.263489847213775    0.689939071553698  0.0000
  O2     O2        0.753381337676254    0.744554796956947    0.688271472338002  0.0000
  O2     O2        0.155954282895933    0.247704812351512    0.135622627581578  0.0000
  O2     O2        0.343000120192691    0.760476105821264    0.139990210682085  0.0000
  O2     O2        0.846741089868041    0.271112756766076    0.889565315129784  0.0000
  O2     O2        0.653359458314621    0.770909387447445    0.882703556441067  0.0000
  O2     O2        0.854271146226525    0.736932727568472    0.885227363549245  0.0000
  O2     O2        0.649552771474129    0.249411634231271    0.887792834698262  0.0000
  O2     O2        0.141353767158907    0.751203785387399    0.146208609372171  0.0000
  O3     O3        0.360827852875969    0.286899050142798    0.134831090481392  0.0000
  O2     O2        0.638630366499238    0.513593738861485    0.056760552873924  0.0000
  O2     O2        0.864890476664135    0.504610602113933    0.080253040894168  0.0000
  O3     O3        0.362884432155444    0.553309793402320    0.937767092756869  0.0000
  O2     O2        0.131554027084963    0.503801614489996    0.962557964151063  0.0000
  O2     O2        0.748459052369450    0.282370761407462    0.087131617139775  0.0000
  O2     O2        0.754101408026751    0.736901273467710    0.079652517431034  0.0000
  O3     O3        0.248113995211379    0.291758160393605    0.930708076828899  0.0000
  O2     O2        0.239387646444447    0.744248595068317    0.947273357069847  0.0000
