data_c00110.vasp
_audit_creation_method             Generated by GULP
_audit_author_name                 Salvador R. G. Balestra
_symmetry_space_group_name_H-M     'P 1             '
_symmetry_Int_Tables_number        1

loop_
_symmetry_equiv_pos_site_id
_symmetry_equiv_pos_as_xyz
_cell_length_a                       17.2688
_cell_length_b                        7.6493
_cell_length_c                       10.1864
_cell_angle_alpha                   88.8680
_cell_angle_beta                    90.0848
_cell_angle_gamma                   90.6594

loop_
_atom_site_label
_atom_site_type_symbol
_atom_site_fract_x
_atom_site_fract_y
_atom_site_fract_z
_atom_site_charge
  Ge     Ge        0.052090000000021    0.000000000000000    0.372269999999958  0.0000
  Ge     Ge        0.950956755407981    0.027275442667027    0.640712851939481  0.0000
  Ge     Ge        0.335842220780899    0.739661503020824    0.279647131479165  0.0000
  Ge     Ge        0.349049540007646    0.355269375954829    0.953993972172524  0.0000
  Si     Si        0.453710553085769    0.026039417946774    0.356069405414146  0.0000
  Si     Si        0.551479454526473    0.024719359022441    0.614065651632395  0.0000
  Si     Si        0.554805009992142    0.014933384556654    0.099920728079254  0.0000
  Si     Si        0.940069548717217    0.021696902813228    0.132680265512757  0.0000
  Si     Si        0.443553723889416    0.044878496765064    0.855484191649920  0.0000
  Si     Si        0.054691693500654    0.026641002837356    0.901777156868135  0.0000
  Si     Si        0.173873649739704    0.294559159642441    0.264799238098213  0.0000
  Si     Si        0.834891106868080    0.317647576615059    0.711611955616219  0.0000
  Si     Si        0.660442678390474    0.728317890798821    0.710678580112721  0.0000
  Si     Si        0.838949642242066    0.722302320204778    0.707962205663142  0.0000
  Si     Si        0.656123143981375    0.326763822437505    0.714337171826143  0.0000
  Si     Si        0.155085719353924    0.693402728718598    0.281157298751196  0.0000
  Si     Si        0.351502522011631    0.329802185704958    0.265098181407390  0.0000
  Si     Si        0.656958201012565    0.325609470819704    0.021049502186268  0.0000
  Si     Si        0.841767317439624    0.718669092090927    0.013506549848707  0.0000
  Si     Si        0.155681713781065    0.715159277021792    0.973781815642499  0.0000
  Si     Si        0.333976504559716    0.761069591325203    0.969012572499598  0.0000
  Si     Si        0.168910906291538    0.322087038013458    0.956711004104839  0.0000
  Si     Si        0.662849850745380    0.723294902245079    0.017847014278172  0.0000
  Si     Si        0.836220518721904    0.316455464170476    0.016830806889023  0.0000
  O3     O3        0.124956888690872    0.149308856914633    0.339880223666493  0.0000
  O3     O3        0.391593707938385    0.871538743544641    0.377429747243136  0.0000
  O3     O3        0.887954499571790    0.201548896587935    0.623231154220392  0.0000
  O2     O2        0.606755174752229    0.857445695568697    0.627002162450434  0.0000
  O3     O3        0.895554721789576    0.838855616642282    0.620486579463316  0.0000
  O2     O2        0.599943584838190    0.203090796290886    0.632470080845957  0.0000
  O3     O3        0.090613370150415    0.793363459789451    0.360520201969325  0.0000
  O2     O2        0.408911414795645    0.209514589001630    0.351085671492917  0.0000
  O1     O1        0.024030486841024    0.033738475359747    0.530756282508761  0.0000
  O2     O2        0.517511228428760    0.029447420251885    0.468967639480384  0.0000
  O3     O3        0.967758961719421    0.020363133006013    0.281598616018493  0.0000
  O2     O2        0.497923283092943    0.991386666870896    0.220819933523830  0.0000
  O3     O3        0.988150315402556    0.034288998125132    0.796986277229069  0.0000
  O2     O2        0.480385881899842    0.009335370816443    0.714660749811783  0.0000
  O2     O2        0.602532005412411    0.197783188642172    0.108139809425397  0.0000
  O2     O2        0.896061028477459    0.840207850715038    0.101198427956977  0.0000
  O3     O3        0.412508432853124    0.240712089384377    0.859123076598123  0.0000
  O2     O2        0.100248207435502    0.843762526196956    0.891712879960713  0.0000
  O2     O2        0.371332480777360    0.911839017264763    0.876489274800157  0.0000
  O2     O2        0.114730719793369    0.187892000831320    0.878375288447804  0.0000
  O2     O2        0.614133574811250    0.853946875106310    0.104660764727555  0.0000
  O2     O2        0.884990844844849    0.187476563911914    0.109005519946978  0.0000
  O2     O2        0.507286624363720    0.007018186489355    0.966040525779436  0.0000
  O2     O2        0.018000820921962    0.041837040665450    0.046825493869859  0.0000
  O2     O2        0.139854213693936    0.485316392098149    0.295680908390568  0.0000
  O3     O3        0.371523997839534    0.530283741529449    0.287839614054307  0.0000
  O2     O2        0.856775280887139    0.519950730081421    0.685200259997197  0.0000
  O2     O2        0.636701391155012    0.528408800673481    0.680226508443953  0.0000
  O2     O2        0.263143133224423    0.289006388637513    0.311364046614705  0.0000
  O3     O3        0.240755978817061    0.740525662673795    0.331448338468507  0.0000
  O2     O2        0.744541239683587    0.286055210780293    0.677769652233620  0.0000
  O2     O2        0.749723401006009    0.762277612992138    0.671712449871601  0.0000
  O2     O2        0.172810614499074    0.262810765415511    0.109179723438707  0.0000
  O3     O3        0.340914683575498    0.815463173273336    0.119217090320329  0.0000
  O2     O2        0.848640305351562    0.267786184927416    0.865339034079553  0.0000
  O2     O2        0.649464073956813    0.765367029908946    0.864310024786763  0.0000
  O2     O2        0.853918933345613    0.769183949957449    0.860744262697609  0.0000
  O2     O2        0.641921920842645    0.287049597388859    0.868265358428536  0.0000
  O2     O2        0.148703922598588    0.753228241283217    0.128055890671063  0.0000
  O3     O3        0.360399672934379    0.281518904761303    0.113496028235570  0.0000
  O2     O2        0.635315989074754    0.525028226492799    0.051959244265034  0.0000
  O2     O2        0.863710170976657    0.516173645080867    0.040558383658417  0.0000
  O3     O3        0.372829173083292    0.575020831924368    0.945731045204405  0.0000
  O2     O2        0.131663603993444    0.515477680080745    0.942933536879404  0.0000
  O2     O2        0.746421460584104    0.292532350280863    0.055743570499266  0.0000
  O2     O2        0.752902580476069    0.748261610457331    0.053547259534954  0.0000
  O3     O3        0.254917189557345    0.323666135423467    0.900270974814540  0.0000
  O2     O2        0.243808638369901    0.745311192054902    0.928546540690833  0.0000
