data_c00123.vasp
_audit_creation_method             Generated by GULP
_audit_author_name                 Salvador R. G. Balestra
_symmetry_space_group_name_H-M     'P 1             '
_symmetry_Int_Tables_number        1

loop_
_symmetry_equiv_pos_site_id
_symmetry_equiv_pos_as_xyz
_cell_length_a                       17.2757
_cell_length_b                        7.6473
_cell_length_c                       10.2725
_cell_angle_alpha                   89.9907
_cell_angle_beta                    90.7411
_cell_angle_gamma                   89.8417

loop_
_atom_site_label
_atom_site_type_symbol
_atom_site_fract_x
_atom_site_fract_y
_atom_site_fract_z
_atom_site_charge
  Ge     Ge        0.052090000000021    0.000000000000000    0.372269999999958  0.0000
  Ge     Ge        0.940858818214809    0.995430185951734    0.629742583466156  0.0000
  Ge     Ge        0.831494635555045    0.693242345963726    0.011831157213856  0.0000
  Ge     Ge        0.161340699711956    0.697227788420825    0.961061827424322  0.0000
  Si     Si        0.450214868130918    0.984339386306144    0.352032285440979  0.0000
  Si     Si        0.541145754073733    0.985515881217719    0.621326704062333  0.0000
  Si     Si        0.554479730603689    0.982821673976295    0.104799385354280  0.0000
  Si     Si        0.940810869967230    0.983350532106955    0.124467131205868  0.0000
  Si     Si        0.437103591048900    0.981807855437840    0.869326117738570  0.0000
  Si     Si        0.047650683845268    0.986028378436761    0.886687726274083  0.0000
  Si     Si        0.158813230115959    0.299905555529399    0.273325699094802  0.0000
  Si     Si        0.344325855459745    0.679181521944118    0.262657865928922  0.0000
  Si     Si        0.831728939047192    0.296668991460650    0.698057650188976  0.0000
  Si     Si        0.647361579432054    0.680419027947066    0.711305443981955  0.0000
  Si     Si        0.825275137994049    0.703880269902735    0.704175508915070  0.0000
  Si     Si        0.653625729643011    0.279536781469109    0.705355710749532  0.0000
  Si     Si        0.167779402864455    0.708301316931935    0.267937052109896  0.0000
  Si     Si        0.337162577425039    0.278303389921147    0.267649778580324  0.0000
  Si     Si        0.662093386484961    0.272147038180495    0.009152803109614  0.0000
  Si     Si        0.329530994693929    0.272237622420585    0.964198695988485  0.0000
  Si     Si        0.341865740904800    0.667268420904567    0.955599357092107  0.0000
  Si     Si        0.149307386309288    0.292094054702638    0.973893319222787  0.0000
  Si     Si        0.649878756924224    0.668252744362710    0.017246032141323  0.0000
  Si     Si        0.841816140552732    0.286297685257410    0.998845835783379  0.0000
  O3     O3        0.103206414063115    0.194079437477723    0.365395818895190  0.0000
  O2     O2        0.404902925003289    0.801885628175696    0.337348647820141  0.0000
  O3     O3        0.887097783445014    0.186112428280172    0.607541796341516  0.0000
  O2     O2        0.588410018467988    0.804828970378401    0.633875225446665  0.0000
  O3     O3        0.877126771314790    0.821389961262128    0.612711547441503  0.0000
  O2     O2        0.599708076410701    0.149182790264571    0.623188804327016  0.0000
  O3     O3        0.114334935400980    0.825002835330908    0.357160637568319  0.0000
  O2     O2        0.390117558938135    0.145924890658254    0.350345995411085  0.0000
  O1     O1        0.015434013066097    0.984360160492810    0.525547872593690  0.0000
  O2     O2        0.495194118242878    0.984673485097178    0.487131635485620  0.0000
  O3     O3        0.972439275418331    0.000683786924690    0.269981971413520  0.0000
  O2     O2        0.513058156982344    0.005759086195382    0.240689025697535  0.0000
  O3     O3        0.979187491531548    0.992198846245521    0.785249310995425  0.0000
  O2     O2        0.478722152418222    0.003835704470413    0.733683014345838  0.0000
  O2     O2        0.621690260711550    0.127775558919040    0.097655207574918  0.0000
  O3     O3        0.883188782509865    0.820796273267599    0.117892445145819  0.0000
  O2     O2        0.369080397254603    0.126129377063194    0.875597739047985  0.0000
  O3     O3        0.106967255297077    0.829057000526819    0.860353919591145  0.0000
  O2     O2        0.401774031595674    0.787167336138613    0.877796814059583  0.0000
  O2     O2        0.095646943845745    0.167284892045210    0.886507806957719  0.0000
  O2     O2        0.590675355029775    0.788410594081240    0.097127237643969  0.0000
  O2     O2        0.895959900171540    0.160213004513189    0.083708176139819  0.0000
  O2     O2        0.495489720632310    0.018971423479826    0.987296779550456  0.0000
  O2     O2        0.012767992996289    0.947709249512537    0.029751117185087  0.0000
  O2     O2        0.142112003747705    0.506227765864667    0.281748601258642  0.0000
  O2     O2        0.364913861965972    0.477035563498442    0.293091108117428  0.0000
  O2     O2        0.850199244884594    0.501711265717933    0.687507444867747  0.0000
  O2     O2        0.626157291226288    0.478988933232718    0.680843686245549  0.0000
  O2     O2        0.248239216905075    0.258799191162993    0.310757159997936  0.0000
  O2     O2        0.258081371800007    0.724259422863733    0.310811223535683  0.0000
  O2     O2        0.742159899452135    0.259275212332035    0.660116488523485  0.0000
  O2     O2        0.734391893662774    0.722652698887733    0.666934016276206  0.0000
  O2     O2        0.141383256133177    0.236647657390700    0.125244568893845  0.0000
  O2     O2        0.347999219280144    0.714204178232299    0.108512198481979  0.0000
  O2     O2        0.847578063193889    0.234063210402620    0.846938429601660  0.0000
  O2     O2        0.641368936810388    0.717065539446046    0.864882951831229  0.0000
  O3     O3        0.838359918081074    0.763740251513698    0.853073269684551  0.0000
  O2     O2        0.647818637500541    0.229389035158406    0.857230492533579  0.0000
  O3     O3        0.158500299155020    0.769909773609361    0.119733660212145  0.0000
  O2     O2        0.344061826288050    0.228669532499225    0.115878039186271  0.0000
  O2     O2        0.628428328406426    0.464775766931697    0.040789922081519  0.0000
  O3     O3        0.868045689332720    0.483065954126920    0.021957775370019  0.0000
  O2     O2        0.363886862566404    0.463753039313823    0.932155139852948  0.0000
  O3     O3        0.123374419846245    0.489061041346462    0.951036456232952  0.0000
  O2     O2        0.752982054805349    0.266649768825243    0.043347549904282  0.0000
  O3     O3        0.736897335329383    0.701288382831993    0.062533739835467  0.0000
  O2     O2        0.238435463045529    0.271125226737648    0.931549797402939  0.0000
  O3     O3        0.255293024922599    0.701039858484686    0.906813239311739  0.0000
