data_c00100.vasp
_audit_creation_method             Generated by GULP
_audit_author_name                 Salvador R. G. Balestra
_symmetry_space_group_name_H-M     'P 1             '
_symmetry_Int_Tables_number        1

loop_
_symmetry_equiv_pos_site_id
_symmetry_equiv_pos_as_xyz
_cell_length_a                       17.2833
_cell_length_b                        7.6433
_cell_length_c                       10.2679
_cell_angle_alpha                   90.7859
_cell_angle_beta                    91.0104
_cell_angle_gamma                   89.4162

loop_
_atom_site_label
_atom_site_type_symbol
_atom_site_fract_x
_atom_site_fract_y
_atom_site_fract_z
_atom_site_charge
  Ge     Ge        0.052090000000021    0.000000000000000    0.372269999999958  0.0000
  Ge     Ge        0.944144915656455    0.976460098943155    0.631693346356604  0.0000
  Ge     Ge        0.159350108383937    0.305450347516634    0.278477220081713  0.0000
  Ge     Ge        0.169610312428110    0.692242449194058    0.958118249608669  0.0000
  Si     Si        0.455779271875825    0.977795001379333    0.359527004870879  0.0000
  Si     Si        0.544282017656926    0.976025229355180    0.630576481121408  0.0000
  Si     Si        0.562749594684211    0.980948576494953    0.118843715639694  0.0000
  Si     Si        0.945690715360598    0.974578982621180    0.119006445927052  0.0000
  Si     Si        0.443693822190453    0.963649466864841    0.882819773469831  0.0000
  Si     Si        0.054158936937279    0.980379673782956    0.885601761288207  0.0000
  Si     Si        0.350638556141400    0.671360019188000    0.263797070623454  0.0000
  Si     Si        0.834485571471705    0.280570639561644    0.700110553486543  0.0000
  Si     Si        0.650777022135683    0.672465544816097    0.716310714193710  0.0000
  Si     Si        0.829575975322128    0.684582241743868    0.705843190366147  0.0000
  Si     Si        0.656251108148865    0.270125970972444    0.712647505143994  0.0000
  Si     Si        0.174319566557600    0.718125398659389    0.264667622947392  0.0000
  Si     Si        0.339979809317082    0.272678938260293    0.276357201999003  0.0000
  Si     Si        0.666966437786200    0.271228410937581    0.016553179471582  0.0000
  Si     Si        0.838787733257216    0.681792874892259    0.008299411612020  0.0000
  Si     Si        0.332501525640011    0.257071591660605    0.970039589880505  0.0000
  Si     Si        0.348956974326799    0.649533911432902    0.956968810119914  0.0000
  Si     Si        0.153827757115952    0.286713997637461    0.972460214936232  0.0000
  Si     Si        0.659594319744435    0.670355102124484    0.019384560704545  0.0000
  Si     Si        0.845595216326053    0.279676371333613    0.003191028829866  0.0000
  O1     O1        0.092538085163139    0.203402415329271    0.369721820012333  0.0000
  O2     O2        0.411573520901966    0.796113224616693    0.336185314155447  0.0000
  O3     O3        0.888633441544089    0.164986975302425    0.610032843158056  0.0000
  O2     O2        0.593390756443862    0.795911880135542    0.634550748325294  0.0000
  O3     O3        0.880304435250244    0.803218706061463    0.616996988492366  0.0000
  O2     O2        0.601714404066805    0.140806125216805    0.629934955212287  0.0000
  O3     O3        0.127802049985307    0.855096529884799    0.350718976713048  0.0000
  O2     O2        0.396668872762476    0.140786262302542    0.351896665227565  0.0000
  O1     O1        0.016023479861392    0.961281937356165    0.523277928457252  0.0000
  O2     O2        0.492104604071132    0.976492710806222    0.502400088887245  0.0000
  O3     O3        0.973488768720364    0.977587247567349    0.267014217527983  0.0000
  O2     O2        0.524738752497388    0.996885423916394    0.258669799043022  0.0000
  O3     O3        0.984330470999726    0.979380822640363    0.785679822619257  0.0000
  O2     O2        0.488112454055742    0.993331095879677    0.751581114895320  0.0000
  O2     O2        0.622295449055929    0.139896301152142    0.107481986171153  0.0000
  O2     O2        0.888602022050807    0.810848019261120    0.098778824061932  0.0000
  O2     O2        0.373392127942035    0.103337278524569    0.888771182422265  0.0000
  O3     O3        0.114920721244706    0.824915063730163    0.858351430778909  0.0000
  O2     O2        0.410501208077483    0.766718320016972    0.882203227662725  0.0000
  O2     O2        0.099411339163480    0.164500913586510    0.881580275291865  0.0000
  O2     O2        0.608065088634712    0.795821279241014    0.109655012672971  0.0000
  O2     O2        0.903009194895074    0.158355981343681    0.086511169541956  0.0000
  O2     O2        0.497985277333224    0.998241853592014    0.007388804509581  0.0000
  O2     O2        0.020722207532764    0.948343306242259    0.030206282081636  0.0000
  O3     O3        0.139771446909017    0.526258139016872    0.281719361272934  0.0000
  O2     O2        0.371628997155380    0.470243669248396    0.295860651509551  0.0000
  O2     O2        0.851660992384880    0.483277706762225    0.676416847605696  0.0000
  O2     O2        0.631118663928968    0.470354969163979    0.685316016454281  0.0000
  O3     O3        0.253816188862433    0.262475491313903    0.329224886307207  0.0000
  O2     O2        0.264387946763934    0.714350069613680    0.312539645615716  0.0000
  O2     O2        0.744484636581140    0.239974313266258    0.669572708700068  0.0000
  O2     O2        0.738383364213540    0.714118552437999    0.677514680726915  0.0000
  O3     O3        0.146656829384991    0.227900407681430    0.120537858187107  0.0000
  O2     O2        0.352533521336077    0.702459867010081    0.109433994780602  0.0000
  O2     O2        0.853693944386962    0.232705241709018    0.850791879269911  0.0000
  O2     O2        0.639639074540567    0.713717681857387    0.869311907765276  0.0000
  O2     O2        0.848120420535346    0.731844391991677    0.857568969027367  0.0000
  O2     O2        0.648973955376520    0.227545314126870    0.865275201919625  0.0000
  O3     O3        0.169941772435852    0.774118877170152    0.115023720663397  0.0000
  O2     O2        0.338431237920274    0.220210109290401    0.123612009885914  0.0000
  O2     O2        0.639789381144023    0.469475334517568    0.049470763130448  0.0000
  O2     O2        0.867631632735079    0.482240909418885    0.030534006849126  0.0000
  O2     O2        0.370988512412773    0.444066023273518    0.938348011986574  0.0000
  O3     O3        0.129289912198059    0.486412541898010    0.954525465794424  0.0000
  O2     O2        0.757989689146988    0.247859832498831    0.046773378434913  0.0000
  O2     O2        0.749818695749081    0.703441448183446    0.048983048041827  0.0000
  O2     O2        0.242747545162693    0.263436703118265    0.927208260815510  0.0000
  O3     O3        0.263227502178851    0.683651878654492    0.902488943226939  0.0000
