data_c00166.vasp
_audit_creation_method             Generated by GULP
_audit_author_name                 Salvador R. G. Balestra
_symmetry_space_group_name_H-M     'P 1             '
_symmetry_Int_Tables_number        1

loop_
_symmetry_equiv_pos_site_id
_symmetry_equiv_pos_as_xyz
_cell_length_a                       17.3275
_cell_length_b                        7.6586
_cell_length_c                       10.1797
_cell_angle_alpha                   89.3221
_cell_angle_beta                    89.9084
_cell_angle_gamma                   89.3206

loop_
_atom_site_label
_atom_site_type_symbol
_atom_site_fract_x
_atom_site_fract_y
_atom_site_fract_z
_atom_site_charge
  Ge     Ge        0.052090000000021    0.000000000000000    0.372269999999958  0.0000
  Ge     Ge        0.557463713414601    0.004399287670835    0.641577395164259  0.0000
  Ge     Ge        0.350545917649742    0.678860777513255    0.293647128254250  0.0000
  Ge     Ge        0.332293886478924    0.295379692680019    0.966023547709904  0.0000
  Si     Si        0.453740203306233    0.982513978401372    0.383413399241505  0.0000
  Si     Si        0.954392412977419    0.000641908120932    0.638778448965231  0.0000
  Si     Si        0.553509325255862    0.007338469328566    0.130714010041961  0.0000
  Si     Si        0.940982992946100    0.995341523354494    0.117700458456132  0.0000
  Si     Si        0.443696346414274    0.001900080437303    0.891653317977334  0.0000
  Si     Si        0.055647162353537    0.016126539089283    0.884595486395493  0.0000
  Si     Si        0.160852119507253    0.304707917047449    0.290246459971570  0.0000
  Si     Si        0.846663668401828    0.301751685070816    0.737200893605468  0.0000
  Si     Si        0.668818586671119    0.704052883473731    0.717158632995923  0.0000
  Si     Si        0.845824492894785    0.701388345947191    0.734344204030150  0.0000
  Si     Si        0.668857486854903    0.299733797616082    0.723324486946610  0.0000
  Si     Si        0.169353104980521    0.706290560132561    0.302603415169777  0.0000
  Si     Si        0.337669514579677    0.269062587994470    0.278541991109674  0.0000
  Si     Si        0.659803080511985    0.301467890573915    0.028033222198183  0.0000
  Si     Si        0.834431603926856    0.700141722268393    0.042620056306348  0.0000
  Si     Si        0.164495376366966    0.720954495291101    0.996554810157438  0.0000
  Si     Si        0.343893020698713    0.698528024169270    0.982467885327814  0.0000
  Si     Si        0.152391311264044    0.322732370926374    0.983465545904475  0.0000
  Si     Si        0.657062320527287    0.704265914983378    0.022613731642172  0.0000
  Si     Si        0.838085017730110    0.304116841815074    0.044778734640481  0.0000
  O3     O3        0.103899416803971    0.190525816751522    0.376109249943380  0.0000
  O3     O3        0.417642413056946    0.790954793912432    0.382489878936133  0.0000
  O2     O2        0.903047640430585    0.174192660326703    0.659521543612257  0.0000
  O3     O3        0.616148607836053    0.821707766778988    0.624037826477270  0.0000
  O2     O2        0.904045956013193    0.827462489746030    0.659664142742930  0.0000
  O3     O3        0.616189264220787    0.184976490737877    0.632825857010197  0.0000
  O3     O3        0.115963636800575    0.827004461855790    0.391108078077603  0.0000
  O2     O2        0.384978426836273    0.120865980473835    0.356782847843833  0.0000
  O3     O3        0.982630887696940    0.000717233219392    0.491063824255870  0.0000
  O3     O3        0.487469755989969    0.020178241920000    0.525041660574814  0.0000
  O3     O3        0.005586673350925    0.980255949008153    0.224841743543364  0.0000
  O2     O2        0.523965085307606    0.000279666461063    0.279793093662847  0.0000
  O2     O2        0.028880196287620    0.000817883424574    0.733974054352023  0.0000
  O3     O3        0.511912979440188    0.989279521870875    0.790349815879851  0.0000
  O2     O2        0.607539700890394    0.176233959404398    0.116660207398548  0.0000
  O2     O2        0.883534644842856    0.831120324485305    0.129431351935251  0.0000
  O3     O3        0.386571372138274    0.164532296540387    0.864857407687826  0.0000
  O2     O2        0.119011139280231    0.865186088682985    0.911649464369300  0.0000
  O2     O2        0.392406755709258    0.827338715663527    0.889139005337142  0.0000
  O2     O2        0.091057708093672    0.207941659642373    0.904944492889985  0.0000
  O2     O2        0.599865471867383    0.827763805363794    0.103461893520906  0.0000
  O2     O2        0.890122865468040    0.173234280996005    0.132566020892866  0.0000
  O2     O2        0.480438150828404    0.029015547683652    0.036070569093237  0.0000
  O2     O2        0.981243500520812    0.990610086841131    0.975307363900732  0.0000
  O2     O2        0.141557498127627    0.507071508427839    0.315365671718299  0.0000
  O3     O3        0.371997439727439    0.458576328843231    0.304571904322788  0.0000
  O2     O2        0.868385036125181    0.501245333843381    0.701997834398893  0.0000
  O2     O2        0.649498881186955    0.502223606944613    0.695058452539834  0.0000
  O2     O2        0.249330894764604    0.265243718906021    0.330627021106818  0.0000
  O3     O3        0.257581793247663    0.719047628702366    0.347009603679186  0.0000
  O2     O2        0.759071225914106    0.263015512901449    0.694832655269543  0.0000
  O2     O2        0.758640134769521    0.740060458747355    0.686160266147150  0.0000
  O2     O2        0.150799850684036    0.261468120931198    0.135838250949120  0.0000
  O3     O3        0.358585132883517    0.746588090120666    0.132423907861857  0.0000
  O2     O2        0.855670369986167    0.268292931519842    0.892421172005095  0.0000
  O2     O2        0.650896309543763    0.753706007086610    0.868784794880107  0.0000
  O2     O2        0.850663514017890    0.734045982010972    0.889364522775468  0.0000
  O2     O2        0.650370100581241    0.251006079032987    0.875622019088859  0.0000
  O2     O2        0.160935972912814    0.769822432969211    0.150115283327909  0.0000
  O3     O3        0.338491258285569    0.223886658470800    0.126176548504274  0.0000
  O2     O2        0.633516346130920    0.502785725065427    0.047868143994380  0.0000
  O2     O2        0.858978073510962    0.502173414939858    0.081804408144353  0.0000
  O3     O3        0.369259588790153    0.502571603118196    0.952636652132701  0.0000
  O2     O2        0.129290258954920    0.528704681712550    0.972681122012322  0.0000
  O2     O2        0.747955612800897    0.272928910127573    0.073438668254858  0.0000
  O2     O2        0.744124785167616    0.732168665403028    0.072505453629516  0.0000
  O3     O3        0.236251889685270    0.293258245449658    0.921920279388179  0.0000
  O2     O2        0.252937859914747    0.719921501801026    0.949610312541807  0.0000
