data_c00278.vasp
_audit_creation_method             Generated by GULP
_audit_author_name                 Salvador R. G. Balestra
_symmetry_space_group_name_H-M     'P 1             '
_symmetry_Int_Tables_number        1

loop_
_symmetry_equiv_pos_site_id
_symmetry_equiv_pos_as_xyz
_cell_length_a                       16.9040
_cell_length_b                        7.5700
_cell_length_c                       10.5397
_cell_angle_alpha                   90.7149
_cell_angle_beta                    90.3312
_cell_angle_gamma                   90.1200

loop_
_atom_site_label
_atom_site_type_symbol
_atom_site_fract_x
_atom_site_fract_y
_atom_site_fract_z
_atom_site_charge
  Ge     Ge        0.052090000000021    0.000000000000000    0.372269999999958  0.0000
  Ge     Ge        0.943102577469397    0.002811356111848    0.116103754212220  0.0000
  Ge     Ge        0.448083561185122    0.972146416746385    0.866119534123947  0.0000
  Ge     Ge        0.674252226768220    0.261931275305065    0.009001576489757  0.0000
  Si     Si        0.456692671540040    0.977646945143408    0.353588814959335  0.0000
  Si     Si        0.954069293081314    0.994662878549985    0.634866956233380  0.0000
  Si     Si        0.552191094191698    0.974974880881859    0.612240407499693  0.0000
  Si     Si        0.559646386846843    0.984807267035857    0.105796082089608  0.0000
  Si     Si        0.057379866834582    0.975982921389542    0.885116169482136  0.0000
  Si     Si        0.156007150956849    0.306937554607783    0.276153100339497  0.0000
  Si     Si        0.356355133845397    0.667076512559154    0.262538605472761  0.0000
  Si     Si        0.851546506492646    0.309017038548664    0.713249369130421  0.0000
  Si     Si        0.651185200059009    0.667040504314566    0.706906672599001  0.0000
  Si     Si        0.833517347710195    0.713283694681113    0.711754344099504  0.0000
  Si     Si        0.671168922614318    0.259464673933229    0.707355158251858  0.0000
  Si     Si        0.174895696024205    0.714041106251701    0.266853804135338  0.0000
  Si     Si        0.338779542475809    0.260886925783571    0.267394906540035  0.0000
  Si     Si        0.827646385441791    0.723326961770542    0.005968945634525  0.0000
  Si     Si        0.331746872962451    0.249614374800387    0.973691385484420  0.0000
  Si     Si        0.172120723205602    0.698057783876769    0.972578154861336  0.0000
  Si     Si        0.355115835654062    0.650501843119282    0.968131261655171  0.0000
  Si     Si        0.148392328788508    0.297850195703482    0.983798283659532  0.0000
  Si     Si        0.643659860688758    0.661546719298699    0.999408137944412  0.0000
  Si     Si        0.857440060211844    0.329692674214174    0.011397684764674  0.0000
  O3     O3        0.096735933585589    0.205571004331347    0.365359465129648  0.0000
  O2     O2        0.416338603817117    0.784394443965623    0.346997057960722  0.0000
  O2     O2        0.914620770444854    0.189807236744149    0.637188163968950  0.0000
  O2     O2        0.591991054200486    0.780595898981276    0.620610185364332  0.0000
  O2     O2        0.883537038321374    0.849187375674407    0.628250558515750  0.0000
  O2     O2        0.620241106637985    0.124638784994511    0.621096574916479  0.0000
  O3     O3        0.126261966363499    0.846197270803402    0.352608724725595  0.0000
  O2     O2        0.389238683603987    0.128973001836971    0.354237196348181  0.0000
  O3     O3        0.011617391522444    0.973006905040552    0.518944632249339  0.0000
  O2     O2        0.508783560336200    0.993186865170776    0.478793265480177  0.0000
  O1     O1        0.976126727435092    0.976857934431396    0.266457078941884  0.0000
  O2     O2        0.513589483566133    0.006048584919471    0.235553867796182  0.0000
  O2     O2        0.006669744558334    0.961111102867130    0.758782922730523  0.0000
  O3     O3        0.487317270342886    0.002414862371412    0.719624906481445  0.0000
  O3     O3        0.635894377034201    0.109204145779624    0.109926441472296  0.0000
  O3     O3        0.857585835670051    0.877390098962249    0.095918174109870  0.0000
  O3     O3        0.365853343017948    0.107291060096581    0.879194684705627  0.0000
  O2     O2        0.129709776996723    0.835719971475109    0.879870651722383  0.0000
  O3     O3        0.415390128579851    0.756683256382687    0.882932788437062  0.0000
  O2     O2        0.089411730788426    0.177465324681124    0.899751656760221  0.0000
  O2     O2        0.586030046579593    0.781007029648757    0.084611688862789  0.0000
  O3     O3        0.922304894208676    0.222895820273149    0.087921487012287  0.0000
  O3     O3        0.509681901537542    0.047785849904721    0.984899309011722  0.0000
  O3     O3        0.007862076628158    0.919944287832335    0.006169345395368  0.0000
  O2     O2        0.145141079281493    0.515808748459407    0.294233683701091  0.0000
  O2     O2        0.369807419213690    0.460742960386259    0.290899626955824  0.0000
  O2     O2        0.866930423327532    0.515774560838964    0.686562480312920  0.0000
  O2     O2        0.637829188092058    0.457824013727492    0.687085211768649  0.0000
  O2     O2        0.246524806940075    0.250008115861203    0.304369734813108  0.0000
  O2     O2        0.267866025377131    0.725142919165357    0.299346723146745  0.0000
  O2     O2        0.763328556067615    0.255552269526375    0.666966460702962  0.0000
  O2     O2        0.741143675834039    0.718753688478280    0.672700943142316  0.0000
  O2     O2        0.131904096147269    0.252171272117260    0.131161382188516  0.0000
  O2     O2        0.372109996526301    0.706520183856520    0.114778090004153  0.0000
  O2     O2        0.860491495466464    0.273061257460759    0.862622642635292  0.0000
  O2     O2        0.630018280033208    0.717473091686553    0.852445771694537  0.0000
  O2     O2        0.840769298981342    0.772450951186005    0.858605512408464  0.0000
  O3     O3        0.665459293376841    0.198782552986927    0.851486735273845  0.0000
  O2     O2        0.161977201376918    0.760629898765016    0.118841411766024  0.0000
  O2     O2        0.349138092660715    0.202266822056087    0.120850864441483  0.0000
  O3     O3        0.623746424742328    0.460351029486222    0.022351067498588  0.0000
  O2     O2        0.873305918513080    0.538771652230143    0.031178317459623  0.0000
  O2     O2        0.369212703204675    0.442349648982876    0.947002220780355  0.0000
  O2     O2        0.132800995606875    0.503739626176342    0.955303167187196  0.0000
  O3     O3        0.770498615071640    0.281687487356607    0.058989946388268  0.0000
  O2     O2        0.735389824761441    0.692985143574842    0.033487305325099  0.0000
  O2     O2        0.238037396966713    0.253440763122558    0.950079254588629  0.0000
  O2     O2        0.264045013267433    0.695316205684522    0.935047213749533  0.0000
