data_c00244.vasp
_audit_creation_method             Generated by GULP
_audit_author_name                 Salvador R. G. Balestra
_symmetry_space_group_name_H-M     'P 1             '
_symmetry_Int_Tables_number        1

loop_
_symmetry_equiv_pos_site_id
_symmetry_equiv_pos_as_xyz
_cell_length_a                       17.0844
_cell_length_b                        7.5710
_cell_length_c                       10.4167
_cell_angle_alpha                   89.8794
_cell_angle_beta                    90.2688
_cell_angle_gamma                   90.0815

loop_
_atom_site_label
_atom_site_type_symbol
_atom_site_fract_x
_atom_site_fract_y
_atom_site_fract_z
_atom_site_charge
  Ge     Ge        0.052090000000021    0.000000000000000    0.372269999999958  0.0000
  Ge     Ge        0.559928452341949    0.979490000633433    0.119489840793750  0.0000
  Ge     Ge        0.852270926354216    0.319771315481846    0.705625463724000  0.0000
  Ge     Ge        0.353485043494291    0.656446891570963    0.964286285815746  0.0000
  Si     Si        0.454944100616722    0.985956770835793    0.370034440260490  0.0000
  Si     Si        0.954487903302153    0.006456232741611    0.633988940457584  0.0000
  Si     Si        0.548393332530193    0.994693160949640    0.632344738676749  0.0000
  Si     Si        0.942324254012104    0.995504915614090    0.122983261189726  0.0000
  Si     Si        0.445698281115732    0.978949820572347    0.878032145365124  0.0000
  Si     Si        0.055225136742279    0.985938011587838    0.890346980477991  0.0000
  Si     Si        0.157101642217843    0.308669184416803    0.283054162509229  0.0000
  Si     Si        0.354942194197510    0.677041843217455    0.269155083769780  0.0000
  Si     Si        0.651797244026480    0.686242152739073    0.724148770834438  0.0000
  Si     Si        0.831971350772222    0.730632696419742    0.720535552305252  0.0000
  Si     Si        0.668279796760336    0.278517603251291    0.709370515155379  0.0000
  Si     Si        0.175451805965687    0.715987144152327    0.269455566824020  0.0000
  Si     Si        0.337310588532505    0.269791081525884    0.277442966530961  0.0000
  Si     Si        0.675070744817544    0.260360925016392    0.008150917556382  0.0000
  Si     Si        0.831644369668624    0.710316138579136    0.021244219462824  0.0000
  Si     Si        0.332512118787549    0.251757550615130    0.978129072396456  0.0000
  Si     Si        0.169810141621787    0.699003898286860    0.970319299195898  0.0000
  Si     Si        0.151275788451777    0.299164670015082    0.986649399086845  0.0000
  Si     Si        0.651284882228319    0.658738325373127    0.021271215649610  0.0000
  Si     Si        0.855982608131898    0.313685535224551    0.010718679862724  0.0000
  O3     O3        0.096854959429909    0.205338436776707    0.371158957854913  0.0000
  O2     O2        0.415950568518197    0.793162576617300    0.351266320600180  0.0000
  O3     O3        0.920080387535005    0.202489080880013    0.618197027924625  0.0000
  O2     O2        0.591649204434380    0.805803434814270    0.643611477447124  0.0000
  O2     O2        0.877218457788655    0.882371729279524    0.643174072009319  0.0000
  O2     O2        0.612413471339896    0.151523333611051    0.625750685606951  0.0000
  O3     O3        0.125770900419741    0.847928720677572    0.352394219266484  0.0000
  O2     O2        0.388361672147600    0.137096733328702    0.363194591111167  0.0000
  O3     O3        0.010198756601707    0.958121428607570    0.518454395248627  0.0000
  O2     O2        0.495073062529528    0.994177829099701    0.507631235790092  0.0000
  O3     O3        0.977204084494578    0.980523034131394    0.263316211930286  0.0000
  O3     O3        0.521928639426315    0.020465908584574    0.267222394342904  0.0000
  O2     O2        0.004110600869944    0.979957108143288    0.763547709754920  0.0000
  O2     O2        0.490965139626584    0.030801425672027    0.750263530615888  0.0000
  O3     O3        0.640453129739430    0.114253281410073    0.099146116339293  0.0000
  O2     O2        0.871189718723020    0.855768077827176    0.111734141100343  0.0000
  O2     O2        0.365697126438006    0.093719528123934    0.892185153248055  0.0000
  O2     O2        0.121122819504475    0.834178404441070    0.882399099868863  0.0000
  O3     O3        0.420004825845202    0.775681700404428    0.875484674442222  0.0000
  O2     O2        0.094701452602386    0.179358830397281    0.900226637425254  0.0000
  O3     O3        0.591563818650857    0.762465219728702    0.109260081679991  0.0000
  O2     O2        0.911999784754680    0.195258979285270    0.100429071458609  0.0000
  O3     O3        0.495592973432174    0.035265126432094    0.000778963807976  0.0000
  O2     O2        0.005681213553551    0.942734796682910    0.016710678988279  0.0000
  O2     O2        0.144788854176621    0.517726126758231    0.296418432753955  0.0000
  O2     O2        0.368943156173632    0.469242672536001    0.295958828836537  0.0000
  O3     O3        0.866158926439763    0.542492169165743    0.681235713769945  0.0000
  O2     O2        0.637973597897602    0.480114379683246    0.694030101634120  0.0000
  O2     O2        0.246637750375811    0.258360059872382    0.319078440312217  0.0000
  O2     O2        0.266733477401399    0.728846676466223    0.308236334195683  0.0000
  O3     O3        0.757057361220367    0.267412064355604    0.663260473031824  0.0000
  O2     O2        0.739953121538995    0.739192843519070    0.684952121796146  0.0000
  O2     O2        0.138740014131354    0.249054490432157    0.136116033263856  0.0000
  O3     O3        0.370343464798875    0.720345172414549    0.121298350301488  0.0000
  O3     O3        0.872281409668890    0.268361264272722    0.863917843529378  0.0000
  O2     O2        0.636915358605223    0.724287970873110    0.874497937254195  0.0000
  O2     O2        0.840831945233190    0.764091716749479    0.872665535017599  0.0000
  O2     O2        0.664753794631520    0.214586398924220    0.857511272079893  0.0000
  O2     O2        0.168446815553380    0.762104937596824    0.118496722537622  0.0000
  O2     O2        0.345311260204687    0.212756136806710    0.129411164326297  0.0000
  O2     O2        0.634518696438596    0.450368857457891    0.033988175400950  0.0000
  O2     O2        0.872789499287984    0.519749936399886    0.041734261763082  0.0000
  O3     O3        0.373350699310837    0.435805933967832    0.943622832127327  0.0000
  O2     O2        0.131204243457059    0.503809904836032    0.960039428100295  0.0000
  O2     O2        0.766269225458117    0.272560784507854    0.042132169935329  0.0000
  O2     O2        0.740863411531263    0.700644153730910    0.059951892486556  0.0000
  O2     O2        0.240580614938899    0.265503380022170    0.947624250217592  0.0000
  O3     O3        0.257801329047925    0.695525544955484    0.920881843270557  0.0000
