data_c00207.vasp
_audit_creation_method             Generated by GULP
_audit_author_name                 Salvador R. G. Balestra
_symmetry_space_group_name_H-M     'P 1             '
_symmetry_Int_Tables_number        1

loop_
_symmetry_equiv_pos_site_id
_symmetry_equiv_pos_as_xyz
_cell_length_a                       17.0430
_cell_length_b                        7.5683
_cell_length_c                       10.4198
_cell_angle_alpha                   89.7587
_cell_angle_beta                    90.0733
_cell_angle_gamma                   90.4660

loop_
_atom_site_label
_atom_site_type_symbol
_atom_site_fract_x
_atom_site_fract_y
_atom_site_fract_z
_atom_site_charge
  Ge     Ge        0.052090000000021    0.000000000000000    0.372269999999958  0.0000
  Ge     Ge        0.563392328640873    0.026681914870877    0.125277536106470  0.0000
  Ge     Ge        0.059043232054114    0.020628631773494    0.890355296840772  0.0000
  Ge     Ge        0.362710889534003    0.359635855454474    0.971162454369259  0.0000
  Si     Si        0.455342652447878    0.025040932142078    0.375356998247924  0.0000
  Si     Si        0.951741299999866    0.013402435669444    0.633267127766834  0.0000
  Si     Si        0.551664399282707    0.020711034638290    0.634699463905833  0.0000
  Si     Si        0.947151739110989    0.019196639195697    0.124768422142705  0.0000
  Si     Si        0.451706434162506    0.034898740636811    0.883492208454017  0.0000
  Si     Si        0.177319013411228    0.285873828119563    0.265951139130984  0.0000
  Si     Si        0.337490685031313    0.740551816116703    0.282296819367982  0.0000
  Si     Si        0.835026947812495    0.296589960387053    0.715234740745338  0.0000
  Si     Si        0.670031613497842    0.738764684434355    0.718312719204961  0.0000
  Si     Si        0.850429877374674    0.700443811167374    0.707780371263275  0.0000
  Si     Si        0.653968479081561    0.330672603528878    0.725176826690288  0.0000
  Si     Si        0.157073396660513    0.694627944511740    0.278167612124946  0.0000
  Si     Si        0.356964447574309    0.334312911459229    0.275786132066725  0.0000
  Si     Si        0.655543747619245    0.347970770234731    0.021757821407876  0.0000
  Si     Si        0.858722326333708    0.700620953562802    0.007130421528036  0.0000
  Si     Si        0.155152035000250    0.702333170820574    0.982915749531301  0.0000
  Si     Si        0.336720717335077    0.761978026559445    0.982449706876463  0.0000
  Si     Si        0.179149791698766    0.303039471021085    0.968256364024092  0.0000
  Si     Si        0.678267936035577    0.749524121105634    0.015827348882047  0.0000
  Si     Si        0.836969110719114    0.302776889379291    0.015248151448433  0.0000
  O3     O3        0.125067971187715    0.155160328080915    0.348553051518209  0.0000
  O2     O2        0.387353200897885    0.875072599289676    0.369191698250515  0.0000
  O2     O2        0.883166783495136    0.161265652779315    0.628171555388048  0.0000
  O2     O2        0.617771968309853    0.868578712098963    0.631760162231707  0.0000
  O2     O2        0.909562183873605    0.820182099175650    0.623302429069478  0.0000
  O2     O2        0.593939030838516    0.212432744639367    0.642758181187980  0.0000
  O3     O3        0.095578552779614    0.794389152637924    0.365849182179474  0.0000
  O2     O2        0.416882203628718    0.218359290199309    0.360379072248220  0.0000
  O3     O3        0.014995283914553    0.034222411423862    0.523439469248211  0.0000
  O2     O2        0.498540100749379    0.012792613794855    0.510242868918392  0.0000
  O3     O3        0.972642237187419    0.018445192938085    0.271295210921498  0.0000
  O3     O3        0.521392256507727    0.990507573011130    0.270656564737817  0.0000
  O3     O3        0.994713548297801    0.040912433503767    0.767898660487987  0.0000
  O2     O2        0.493738228411582    0.984487166105046    0.752537732386635  0.0000
  O3     O3        0.597258501587311    0.242670911744374    0.112737643173356  0.0000
  O2     O2        0.920481251851527    0.821185721069634    0.082999684767201  0.0000
  O3     O3        0.431068960284796    0.240705876265183    0.886389008408841  0.0000
  O3     O3        0.097621683502992    0.810050847681516    0.893248956639183  0.0000
  O2     O2        0.369670417233188    0.925189665305301    0.899202917173507  0.0000
  O3     O3        0.135152501465878    0.171586559502821    0.874592926474328  0.0000
  O3     O3        0.643152504607456    0.888458973571270    0.110960538592984  0.0000
  O2     O2        0.876522099406166    0.157455397863902    0.105012866666710  0.0000
  O3     O3        0.502453466220504    0.968726443181629    0.002503844260157  0.0000
  O3     O3        0.018372609072985    0.078066265305491    0.035688129551482  0.0000
  O2     O2        0.145713904261405    0.484209235212529    0.287780883094611  0.0000
  O2     O2        0.369617529392535    0.542357349279113    0.303936649943802  0.0000
  O2     O2        0.863991868795534    0.494367404945255    0.678299851124020  0.0000
  O2     O2        0.639911478228621    0.537806984360026    0.698124665018700  0.0000
  O2     O2        0.268002996031022    0.277998504387755    0.310608579389618  0.0000
  O2     O2        0.245830183718398    0.748178900401962    0.319890288624788  0.0000
  O2     O2        0.742420725152166    0.278539376463571    0.686547884809143  0.0000
  O2     O2        0.760876416135429    0.752661366444655    0.675737650486493  0.0000
  O2     O2        0.175231507975782    0.233646471643127    0.115972215922676  0.0000
  O2     O2        0.347489021496236    0.797897929525328    0.134410615318928  0.0000
  O2     O2        0.849128373468870    0.255607346726126    0.865690751268586  0.0000
  O2     O2        0.663594037220634    0.798872273474792    0.866295350132092  0.0000
  O2     O2        0.870525158909122    0.738132465549157    0.856260689821722  0.0000
  O2     O2        0.637908943608829    0.288361314639548    0.874902935941207  0.0000
  O2     O2        0.140738949095066    0.758248174985888    0.131493528546863  0.0000
  O3     O3        0.376735867461149    0.294970772692832    0.128983529751315  0.0000
  O2     O2        0.640684057853622    0.555511103574369    0.040067497179811  0.0000
  O2     O2        0.875555353788529    0.495769648409627    0.040672806049542  0.0000
  O3     O3        0.380969407129677    0.581779227222896    0.949758689343186  0.0000
  O2     O2        0.138613978236283    0.495400785697575    0.962688019554645  0.0000
  O2     O2        0.745821792196891    0.303631935068547    0.052245731486424  0.0000
  O2     O2        0.770682581617359    0.746826886028886    0.046142696465889  0.0000
  O3     O3        0.268395749993400    0.317003762917312    0.923298544841686  0.0000
  O2     O2        0.245385467871200    0.743671802569682    0.947675570655799  0.0000
