data_c00256.vasp
_audit_creation_method             Generated by GULP
_audit_author_name                 Salvador R. G. Balestra
_symmetry_space_group_name_H-M     'P 1             '
_symmetry_Int_Tables_number        1

loop_
_symmetry_equiv_pos_site_id
_symmetry_equiv_pos_as_xyz
_cell_length_a                       17.0818
_cell_length_b                        7.5751
_cell_length_c                       10.4184
_cell_angle_alpha                   90.5802
_cell_angle_beta                    91.2404
_cell_angle_gamma                   90.6587

loop_
_atom_site_label
_atom_site_type_symbol
_atom_site_fract_x
_atom_site_fract_y
_atom_site_fract_z
_atom_site_charge
  Ge     Ge        0.052090000000021    0.000000000000000    0.372269999999958  0.0000
  Ge     Ge        0.561551068120260    0.994547126732136    0.135552480212010  0.0000
  Ge     Ge        0.650947120223642    0.670901735192607    0.725039940820985  0.0000
  Ge     Ge        0.860849474951313    0.337524865158213    0.034537073326429  0.0000
  Si     Si        0.455121942245445    0.998269932341620    0.384229018835059  0.0000
  Si     Si        0.952117711334088    0.000995071971842    0.634161711744137  0.0000
  Si     Si        0.546756852427750    0.978750641999721    0.646589813610867  0.0000
  Si     Si        0.949719958547913    0.012274621145282    0.114163457149925  0.0000
  Si     Si        0.444683863751161    0.001992243145190    0.895153937438361  0.0000
  Si     Si        0.059883095595344    0.002137805827724    0.880037357955282  0.0000
  Si     Si        0.157483530434569    0.311641073189877    0.284186423095491  0.0000
  Si     Si        0.353844562749374    0.686381169327724    0.288879013974611  0.0000
  Si     Si        0.851137194314550    0.306568040946202    0.729877466270899  0.0000
  Si     Si        0.832102928401878    0.710280261724177    0.719427178423714  0.0000
  Si     Si        0.671135859479555    0.256994870058153    0.738689919940615  0.0000
  Si     Si        0.173234793553399    0.720860967239660    0.287754184469659  0.0000
  Si     Si        0.338041949903833    0.280723910921296    0.284183755297493  0.0000
  Si     Si        0.677714804767888    0.277816481141244    0.036945553428276  0.0000
  Si     Si        0.830762245056761    0.735284777338439    0.023097736449596  0.0000
  Si     Si        0.334459280186555    0.285270705024197    0.984674546591534  0.0000
  Si     Si        0.169710123160132    0.720912487930616    0.990673367983211  0.0000
  Si     Si        0.351388722315169    0.685026406407707    0.990743289386309  0.0000
  Si     Si        0.153433625195994    0.317318907246067    0.987263898599179  0.0000
  Si     Si        0.651986427285126    0.676150222651521    0.028075171863386  0.0000
  O3     O3        0.097729083669426    0.204744651487752    0.368841776680164  0.0000
  O2     O2        0.414371501305389    0.804316058634174    0.373339704763001  0.0000
  O2     O2        0.908751664483088    0.188349733795141    0.645064977528303  0.0000
  O3     O3        0.580249999191153    0.783149161197167    0.638566052331356  0.0000
  O2     O2        0.888977429869974    0.843479467570651    0.647282936303045  0.0000
  O2     O2        0.622862336621827    0.107448009453339    0.659725988795181  0.0000
  O3     O3        0.125560661565063    0.844561904442460    0.379843742436855  0.0000
  O2     O2        0.388807125324905    0.146370456349118    0.367025869981033  0.0000
  O3     O3        0.989988027844577    0.986244977729948    0.497256812960144  0.0000
  O2     O2        0.494629860874445    0.024240963915112    0.523015919687353  0.0000
  O3     O3        0.995667314784072    0.950528246679143    0.238141410637835  0.0000
  O3     O3        0.522690134582227    0.020053758894208    0.283691455685988  0.0000
  O2     O2        0.022350629194190    0.983815920858031    0.738963761317397  0.0000
  O2     O2        0.490900610348102    0.010852045417856    0.765489909422385  0.0000
  O3     O3        0.639263323388427    0.141088600285744    0.130649062173932  0.0000
  O2     O2        0.867454614283731    0.904999860683504    0.096351812527508  0.0000
  O2     O2        0.375010942020078    0.145394641697303    0.892370888213350  0.0000
  O2     O2        0.127426455884109    0.856251262795443    0.895806453459372  0.0000
  O2     O2        0.408461330493333    0.804665689389431    0.907506925289054  0.0000
  O2     O2        0.096170564067125    0.199626707669431    0.896503584142485  0.0000
  O3     O3        0.593602373505357    0.780924683276032    0.117113088745450  0.0000
  O3     O3        0.928144584289207    0.217756159307613    0.122716462449531  0.0000
  O3     O3        0.498044228954206    0.056802657655611    0.015625840349179  0.0000
  O2     O2        0.996430802900333    0.964440089921215    0.986339038079334  0.0000
  O2     O2        0.146096666720534    0.519034048732245    0.307365740087689  0.0000
  O2     O2        0.367093063657142    0.480194006768429    0.317048462244055  0.0000
  O2     O2        0.865647260229029    0.512965287603761    0.700191692953851  0.0000
  O3     O3        0.634498155701092    0.446410423805162    0.712430960750205  0.0000
  O2     O2        0.246922061617112    0.258296539122548    0.318198807455341  0.0000
  O2     O2        0.265533754253328    0.739282417194362    0.320801356996207  0.0000
  O2     O2        0.761082394967181    0.256355975984582    0.693606769790096  0.0000
  O3     O3        0.743443700870410    0.717384170941845    0.667752605213764  0.0000
  O2     O2        0.138489987124490    0.263053014065629    0.134478714978412  0.0000
  O2     O2        0.371024042093979    0.727282845676832    0.140189269831431  0.0000
  O3     O3        0.870772525934999    0.268956552418114    0.877183405156944  0.0000
  O3     O3        0.639077123404721    0.738134595962240    0.882275330524191  0.0000
  O2     O2        0.828694339519962    0.759360196536792    0.869728865349077  0.0000
  O2     O2        0.671599043988676    0.208502007237209    0.889335519989704  0.0000
  O2     O2        0.157918790459166    0.776443533152984    0.139128881259608  0.0000
  O2     O2        0.349074818258197    0.237671693921911    0.133887710968194  0.0000
  O2     O2        0.634888603086593    0.467759456380604    0.041378201490477  0.0000
  O3     O3        0.879505614375607    0.560600918153349    0.054866091397151  0.0000
  O2     O2        0.368552986064028    0.481117108370916    0.958338842580584  0.0000
  O2     O2        0.134935600082816    0.523453209743129    0.966004348326558  0.0000
  O3     O3        0.766858973835113    0.301454296162613    0.082290431098459  0.0000
  O2     O2        0.742210924444515    0.716366249306856    0.070611169231964  0.0000
  O2     O2        0.242420596985348    0.279242300182065    0.951540257457782  0.0000
  O2     O2        0.261240989179723    0.727187320844760    0.958983320321478  0.0000
