data_c00263.vasp
_audit_creation_method             Generated by GULP
_audit_author_name                 Salvador R. G. Balestra
_symmetry_space_group_name_H-M     'P 1             '
_symmetry_Int_Tables_number        1

loop_
_symmetry_equiv_pos_site_id
_symmetry_equiv_pos_as_xyz
_cell_length_a                       16.9950
_cell_length_b                        7.6205
_cell_length_c                       10.3798
_cell_angle_alpha                   91.5109
_cell_angle_beta                    90.5092
_cell_angle_gamma                   89.6181

loop_
_atom_site_label
_atom_site_type_symbol
_atom_site_fract_x
_atom_site_fract_y
_atom_site_fract_z
_atom_site_charge
  Ge     Ge        0.052090000000021    0.000000000000000    0.372269999999958  0.0000
  Ge     Ge        0.558194363687041    0.041355232536387    0.130811079224560  0.0000
  Ge     Ge        0.649964263830213    0.369569549779187    0.039846418215066  0.0000
  Ge     Ge        0.837358330322927    0.340035350587449    0.045041040432844  0.0000
  Si     Si        0.455911304994262    0.009347147338382    0.377563569686898  0.0000
  Si     Si        0.949628448401790    0.999919971833550    0.632106321014061  0.0000
  Si     Si        0.548896911980255    0.010304192340817    0.640021578321166  0.0000
  Si     Si        0.942452520918834    0.034064341882050    0.117671593050837  0.0000
  Si     Si        0.443366057936979    0.998068553711071    0.887847901267925  0.0000
  Si     Si        0.054452653097686    0.999584985313944    0.880720193351619  0.0000
  Si     Si        0.169957952213367    0.287339966931033    0.281734634453620  0.0000
  Si     Si        0.341518971712104    0.717356050592214    0.280396887992813  0.0000
  Si     Si        0.835160380272207    0.298060072017755    0.735667649381524  0.0000
  Si     Si        0.663034036647750    0.723875823923091    0.711705757111399  0.0000
  Si     Si        0.845388124417184    0.702026433244574    0.713746279246038  0.0000
  Si     Si        0.655257953950583    0.319076438865413    0.732038112503302  0.0000
  Si     Si        0.160333139133759    0.693984441961126    0.290663687246154  0.0000
  Si     Si        0.351980869980054    0.313461384374971    0.274891212152370  0.0000
  Si     Si        0.847191917904642    0.726418751128586    0.008370953598369  0.0000
  Si     Si        0.347105700215901    0.315472573515981    0.975856087625585  0.0000
  Si     Si        0.151585526636087    0.691876482629948    0.991596894716049  0.0000
  Si     Si        0.333806584548568    0.714268898761696    0.979470567178646  0.0000
  Si     Si        0.164206939391823    0.289240999837014    0.983463419544846  0.0000
  Si     Si        0.663929392898860    0.758708404366726    0.006918504147914  0.0000
  O3     O3        0.119679793158074    0.168591774979656    0.371666317125555  0.0000
  O2     O2        0.394507585866816    0.849593628602649    0.364886592521179  0.0000
  O2     O2        0.889701659511684    0.159903974171566    0.659261581722025  0.0000
  O2     O2        0.610121962938083    0.847176960391880    0.620751095939077  0.0000
  O2     O2        0.902286056524466    0.815132073550818    0.624844871962833  0.0000
  O2     O2        0.596110158955537    0.192513326465167    0.651917531254762  0.0000
  O3     O3        0.105012993674979    0.806093927761381    0.383650932356871  0.0000
  O2     O2        0.412534878125190    0.194715503687754    0.352631231125581  0.0000
  O3     O3        0.987778753049681    0.030734623083008    0.495663522578815  0.0000
  O2     O2        0.490494388207045    0.017171420907498    0.520002551659559  0.0000
  O3     O3        0.999490412796985    0.986548707912651    0.231336322065314  0.0000
  O3     O3        0.526570965609519    0.982092638569559    0.279398011085668  0.0000
  O2     O2        0.020031870058294    0.993690392176815    0.736867455035721  0.0000
  O2     O2        0.494889863963883    0.977689671708683    0.761997809462606  0.0000
  O1     O1        0.582153457048423    0.256275422039739    0.125892495779635  0.0000
  O2     O2        0.875671045245527    0.884256159701714    0.100636928359918  0.0000
  O2     O2        0.402634183637023    0.191409781735147    0.888491473374311  0.0000
  O2     O2        0.092960646479072    0.809830156320267    0.908293823084298  0.0000
  O2     O2        0.376074298063895    0.848648720892851    0.887373318717622  0.0000
  O2     O2        0.119281391438937    0.153497321415735    0.889130296194735  0.0000
  O3     O3        0.644952697615241    0.925014385054747    0.094745910272429  0.0000
  O3     O3        0.896954790985768    0.214641593696707    0.142341021142127  0.0000
  O3     O3        0.493841785623432    0.966288341156677    0.014211566295712  0.0000
  O2     O2        0.987475503684763    0.047232854583545    0.982406198030157  0.0000
  O2     O2        0.146710755600822    0.488949833638262    0.311484712064540  0.0000
  O2     O2        0.367632551091129    0.517733337297749    0.308758264883351  0.0000
  O2     O2        0.863993077314739    0.494576734739826    0.701876610924180  0.0000
  O2     O2        0.635636714777413    0.521908766034983    0.699425005185507  0.0000
  O2     O2        0.262978047952410    0.261176963671892    0.307706847272934  0.0000
  O2     O2        0.250976655437813    0.744187199349967    0.319786447910627  0.0000
  O2     O2        0.744620064417432    0.275145083439846    0.688718114682636  0.0000
  O2     O2        0.754742605748754    0.738506984060022    0.674118295025476  0.0000
  O2     O2        0.150785823966614    0.237315675055979    0.131763255801582  0.0000
  O2     O2        0.351650603186152    0.758343245148702    0.129843718155853  0.0000
  O3     O3        0.838232878945616    0.265245593792029    0.886069601718946  0.0000
  O2     O2        0.649771405169488    0.800347284363336    0.856384519317812  0.0000
  O2     O2        0.864138485665984    0.770402270889103    0.859621279175500  0.0000
  O3     O3        0.645384156842864    0.288159227256760    0.882004499174149  0.0000
  O2     O2        0.139785653456529    0.740176760664040    0.142321822252199  0.0000
  O2     O2        0.368770181175594    0.275240064485519    0.124013719880644  0.0000
  O3     O3        0.617573904808859    0.585434048908359    0.045949841107086  0.0000
  O3     O3        0.883334141072747    0.543311801773393    0.049463163709835  0.0000
  O2     O2        0.364510230065317    0.517328691872510    0.945320122273360  0.0000
  O2     O2        0.132423504904452    0.486980586442431    0.962635255268341  0.0000
  O1     O1        0.743040061565692    0.333716953281730    0.099302978915208  0.0000
  O2     O2        0.754037559518848    0.690380919355031    0.021926086738147  0.0000
  O2     O2        0.255890553467421    0.275041337570451    0.949180181523383  0.0000
  O2     O2        0.240921223450955    0.729552781483262    0.952101034550128  0.0000
