data_c00236.vasp
_audit_creation_method             Generated by GULP
_audit_author_name                 Salvador R. G. Balestra
_symmetry_space_group_name_H-M     'P 1             '
_symmetry_Int_Tables_number        1

loop_
_symmetry_equiv_pos_site_id
_symmetry_equiv_pos_as_xyz
_cell_length_a                       17.1078
_cell_length_b                        7.5835
_cell_length_c                       10.3774
_cell_angle_alpha                   89.2654
_cell_angle_beta                    91.2843
_cell_angle_gamma                   89.9958

loop_
_atom_site_label
_atom_site_type_symbol
_atom_site_fract_x
_atom_site_fract_y
_atom_site_fract_z
_atom_site_charge
  Ge     Ge        0.052090000000021    0.000000000000000    0.372269999999958  0.0000
  Ge     Ge        0.559479677420961    0.003744142530450    0.129292897326022  0.0000
  Ge     Ge        0.357104329933750    0.677262788309192    0.291895337956015  0.0000
  Ge     Ge        0.859100218827430    0.343177867948017    0.032430927672745  0.0000
  Si     Si        0.458828435344931    0.986548670883387    0.382495871382240  0.0000
  Si     Si        0.950306155165918    0.020981127908716    0.631807650196710  0.0000
  Si     Si        0.550092464442701    0.008207211158378    0.645084344505702  0.0000
  Si     Si        0.949315189368177    0.016908726300122    0.114815599092274  0.0000
  Si     Si        0.442294906984900    0.015095276769364    0.889341347013654  0.0000
  Si     Si        0.058324585097549    0.020182459064576    0.878377906916160  0.0000
  Si     Si        0.157700991206170    0.309831092110281    0.279412009693331  0.0000
  Si     Si        0.849799852590302    0.327105608250697    0.725089338147614  0.0000
  Si     Si        0.654297481707729    0.698479451750326    0.723391846630922  0.0000
  Si     Si        0.832535861923347    0.731263078558500    0.722473441641396  0.0000
  Si     Si        0.669865751219613    0.291658363390071    0.728984806378312  0.0000
  Si     Si        0.172832701809318    0.719276930271516    0.291204193660176  0.0000
  Si     Si        0.337360689778514    0.265999304005715    0.276442800510352  0.0000
  Si     Si        0.675526471777371    0.289549904880702    0.029008355012129  0.0000
  Si     Si        0.831746755165023    0.742645211514257    0.026396651237093  0.0000
  Si     Si        0.331942747764239    0.297952001687614    0.973817655496491  0.0000
  Si     Si        0.168868539088108    0.734654690645754    0.992108174595592  0.0000
  Si     Si        0.351429173761468    0.696576404676254    0.986476990159292  0.0000
  Si     Si        0.151753115327831    0.332311616546893    0.980946950234898  0.0000
  Si     Si        0.652891325556301    0.687842376405616    0.022997343403756  0.0000
  O3     O3        0.098191138306332    0.202051254552368    0.364382660168349  0.0000
  O3     O3        0.426312310140504    0.788686827252494    0.381500857610873  0.0000
  O2     O2        0.907894384443889    0.210569590034138    0.640632085811260  0.0000
  O2     O2        0.592069052254624    0.816743760651352    0.641745833833267  0.0000
  O2     O2        0.885443823074364    0.868435547183658    0.645992067084185  0.0000
  O2     O2        0.616492190085244    0.159301958080562    0.646138538647627  0.0000
  O3     O3        0.122591996841660    0.837083555797395    0.384031959963485  0.0000
  O2     O2        0.383796741425770    0.109905532350872    0.348667278206831  0.0000
  O3     O3        0.987661317265197    0.000640614647119    0.494865438831187  0.0000
  O2     O2        0.494423860917982    0.034231986643212    0.521411765963781  0.0000
  O3     O3        0.997672399616960    0.950817036067983    0.236376278628124  0.0000
  O3     O3        0.526615363089896    0.018235950494164    0.282554881201063  0.0000
  O2     O2        0.020906784412135    0.000891581406099    0.736771239498259  0.0000
  O2     O2        0.495846894660278    0.027755414484615    0.767009948217892  0.0000
  O3     O3        0.636365256323007    0.148229707568093    0.119542001805165  0.0000
  O2     O2        0.868256520872745    0.907119915588835    0.101581355625479  0.0000
  O2     O2        0.373399293639342    0.162153296753379    0.879915540113867  0.0000
  O2     O2        0.127324561754290    0.876561406065124    0.897899395412729  0.0000
  O2     O2        0.404532759801503    0.819831525047911    0.896442339190309  0.0000
  O2     O2        0.092905613227972    0.218489044259683    0.892266172919446  0.0000
  O3     O3        0.591535100657977    0.791227505931899    0.104661085987719  0.0000
  O3     O3        0.925552539538475    0.221010841279804    0.123328786410859  0.0000
  O3     O3        0.489999626294569    0.065040929038452    0.016989373183017  0.0000
  O2     O2        0.994492269063460    0.979365552221087    0.983852164458341  0.0000
  O2     O2        0.147504488720402    0.515802322451683    0.305870957394563  0.0000
  O3     O3        0.370410107551987    0.454352644350356    0.317451581695519  0.0000
  O2     O2        0.863621660297074    0.534351586245513    0.695271469258965  0.0000
  O2     O2        0.638787373631825    0.490803373289375    0.702867812767945  0.0000
  O2     O2        0.246483479339542    0.250872622639565    0.313569057592815  0.0000
  O3     O3        0.263440078613497    0.736520863414104    0.328989685896009  0.0000
  O2     O2        0.760026947603455    0.277765842094161    0.688154506337352  0.0000
  O2     O2        0.741598057692888    0.746916003515112    0.677400637220855  0.0000
  O2     O2        0.139127203532716    0.270215108050569    0.128547413287632  0.0000
  O3     O3        0.375584413444809    0.733364964879835    0.133131061809178  0.0000
  O3     O3        0.869879904290598    0.286316446888927    0.873123758964365  0.0000
  O2     O2        0.643321470885494    0.745993472826369    0.872829104255513  0.0000
  O2     O2        0.837180283969861    0.771873367798853    0.873135792691393  0.0000
  O2     O2        0.666217791606731    0.235206107731588    0.878864929784627  0.0000
  O2     O2        0.158520637465445    0.783038998520215    0.141994478777484  0.0000
  O2     O2        0.344952660027568    0.243015008792102    0.123027720706874  0.0000
  O2     O2        0.635346333456398    0.481361637524161    0.042459526821099  0.0000
  O3     O3        0.877054549931951    0.562922350173196    0.061122539670166  0.0000
  O2     O2        0.367115407675819    0.493231186576066    0.951226027241189  0.0000
  O2     O2        0.133052289194771    0.540312785138257    0.964296529646099  0.0000
  O3     O3        0.764748083877960    0.300604120475676    0.073750337250176  0.0000
  O2     O2        0.741865238098451    0.729323896320353    0.068008632692959  0.0000
  O2     O2        0.239976829458090    0.296164004638973    0.938975543544939  0.0000
  O2     O2        0.260215518603497    0.738918092247631    0.962045913017573  0.0000
