data_c00268.vasp
_audit_creation_method             Generated by GULP
_audit_author_name                 Salvador R. G. Balestra
_symmetry_space_group_name_H-M     'P 1             '
_symmetry_Int_Tables_number        1

loop_
_symmetry_equiv_pos_site_id
_symmetry_equiv_pos_as_xyz
_cell_length_a                       16.9765
_cell_length_b                        7.5770
_cell_length_c                       10.4423
_cell_angle_alpha                   89.9842
_cell_angle_beta                    91.2241
_cell_angle_gamma                   90.6259

loop_
_atom_site_label
_atom_site_type_symbol
_atom_site_fract_x
_atom_site_fract_y
_atom_site_fract_z
_atom_site_charge
  Ge     Ge        0.052090000000021    0.000000000000000    0.372269999999958  0.0000
  Ge     Ge        0.555431729403027    0.987719706594437    0.118168905407251  0.0000
  Ge     Ge        0.825283833181767    0.747124633817439    0.019455972247227  0.0000
  Ge     Ge        0.858865731985525    0.339884408693127    0.023231417703042  0.0000
  Si     Si        0.455336663396772    0.992243893835270    0.370474132244062  0.0000
  Si     Si        0.945255228626735    0.008399509553246    0.627513380061993  0.0000
  Si     Si        0.544850014015780    0.983964738959904    0.637701533561905  0.0000
  Si     Si        0.944492054828732    0.018221351805652    0.118678169684532  0.0000
  Si     Si        0.437654579429499    0.003280652395591    0.881116662275774  0.0000
  Si     Si        0.048409580693733    0.997580881446605    0.880321194209948  0.0000
  Si     Si        0.156453749360257    0.309779486212782    0.281251153420662  0.0000
  Si     Si        0.352330749047523    0.683378768834676    0.273321771785307  0.0000
  Si     Si        0.846636492166767    0.315060892866640    0.721557790903450  0.0000
  Si     Si        0.647814566922257    0.673272084241854    0.717759449707431  0.0000
  Si     Si        0.826360650473178    0.723285274346689    0.715361208670889  0.0000
  Si     Si        0.666093890257279    0.270572514509004    0.721800992198355  0.0000
  Si     Si        0.170859175274211    0.718285821101138    0.281699976309960  0.0000
  Si     Si        0.337670824418326    0.277815071579086    0.270998754654189  0.0000
  Si     Si        0.673387990188004    0.271558358492250    0.020597865942451  0.0000
  Si     Si        0.327635652777164    0.284027947522297    0.972174557959544  0.0000
  Si     Si        0.161694585418984    0.716606566041276    0.985412256520326  0.0000
  Si     Si        0.344323230707782    0.684681312894385    0.976112679436921  0.0000
  Si     Si        0.145626216558491    0.312044653851731    0.985177128062242  0.0000
  Si     Si        0.644107853946594    0.664369330651543    0.018259813868221  0.0000
  O3     O3        0.099067183426451    0.203061958013144    0.371098572883042  0.0000
  O2     O2        0.414390818024921    0.799750926396968    0.354719856385860  0.0000
  O2     O2        0.904801622829302    0.200667154460789    0.634307419695738  0.0000
  O2     O2        0.583407567651294    0.789803672176098    0.641453356812987  0.0000
  O2     O2        0.878638293600499    0.854699192794121    0.630187749497508  0.0000
  O2     O2        0.614615704822941    0.130102298870437    0.640537236061790  0.0000
  O3     O3        0.124590271962401    0.840972766014761    0.376025048056673  0.0000
  O2     O2        0.389932712745926    0.143543397267408    0.352852164232258  0.0000
  O3     O3        0.989630202199782    0.989300268170058    0.496700029129629  0.0000
  O2     O2        0.492674934172975    0.006419457433294    0.510970069957875  0.0000
  O3     O3        0.995446981421878    0.957531160863401    0.237834412349030  0.0000
  O3     O3        0.523691927426283    0.017367078258395    0.270588224879274  0.0000
  O2     O2        0.010731495444474    0.983562993278625    0.739745688117916  0.0000
  O2     O2        0.487360519424259    0.014847703502136    0.754496979441724  0.0000
  O3     O3        0.638670839273279    0.118383581925565    0.105885649906483  0.0000
  O3     O3        0.860716997598962    0.917639916053355    0.112469133773367  0.0000
  O2     O2        0.367690107980776    0.147387768001714    0.877229942534506  0.0000
  O2     O2        0.116455623012002    0.851298889302643    0.892741799801823  0.0000
  O2     O2        0.400000401113793    0.806522954901266    0.890315666674282  0.0000
  O2     O2        0.085104179897333    0.194438848789310    0.900552036837026  0.0000
  O3     O3        0.578209727366062    0.769645140820333    0.090972335876128  0.0000
  O3     O3        0.926522799260747    0.225388234279360    0.116518450244954  0.0000
  O3     O3        0.488991528927269    0.057696294456413    0.004107512417742  0.0000
  O2     O2        0.984078089187108    0.954590743466091    0.986029741800717  0.0000
  O2     O2        0.144195230234677    0.516481897614590    0.303621225381637  0.0000
  O2     O2        0.367124500475830    0.477279942750618    0.300600529858210  0.0000
  O2     O2        0.861285472857515    0.525496395399796    0.705677428098260  0.0000
  O2     O2        0.630485763870043    0.465171980789640    0.696503956457065  0.0000
  O2     O2        0.246911526410776    0.256563230712283    0.310439846310432  0.0000
  O2     O2        0.264225801634479    0.736061051518633    0.310007708977791  0.0000
  O2     O2        0.756727103147738    0.267706945269865    0.678494255479369  0.0000
  O2     O2        0.734933543424714    0.720348796953632    0.666675713865923  0.0000
  O2     O2        0.134165900668239    0.259074482109499    0.133628648224423  0.0000
  O2     O2        0.366480355069227    0.726659687484785    0.124115683625071  0.0000
  O3     O3        0.865767573905391    0.264870105212651    0.866913160715564  0.0000
  O2     O2        0.642589294153573    0.718813500562562    0.867776450928379  0.0000
  O3     O3        0.827782867068483    0.795229736894785    0.858305340052916  0.0000
  O2     O2        0.665651060866893    0.216612226296524    0.870797673925908  0.0000
  O2     O2        0.152660173699223    0.772802825167521    0.133673789021788  0.0000
  O2     O2        0.345311493499632    0.234985710390053    0.120554108094387  0.0000
  O2     O2        0.626909377133174    0.456161873145884    0.036535003018873  0.0000
  O1     O1        0.878698975435575    0.557737742779264    0.042209687753591  0.0000
  O2     O2        0.360465760935410    0.480801595164942    0.943896934788038  0.0000
  O2     O2        0.127051220722741    0.518615698006378    0.963725734332652  0.0000
  O3     O3        0.762562459732357    0.303138263212929    0.065004969082259  0.0000
  O3     O3        0.730555631274090    0.713709559350974    0.070969400229661  0.0000
  O2     O2        0.234337235777794    0.274088198542643    0.944073627786772  0.0000
  O2     O2        0.252958146596582    0.725759289331775    0.948524152503318  0.0000
