data_c00224.vasp
_audit_creation_method             Generated by GULP
_audit_author_name                 Salvador R. G. Balestra
_symmetry_space_group_name_H-M     'P 1             '
_symmetry_Int_Tables_number        1

loop_
_symmetry_equiv_pos_site_id
_symmetry_equiv_pos_as_xyz
_cell_length_a                       17.0888
_cell_length_b                        7.5812
_cell_length_c                       10.4582
_cell_angle_alpha                   88.5215
_cell_angle_beta                    90.6954
_cell_angle_gamma                   90.1320

loop_
_atom_site_label
_atom_site_type_symbol
_atom_site_fract_x
_atom_site_fract_y
_atom_site_fract_z
_atom_site_charge
  Ge     Ge        0.052090000000021    0.000000000000000    0.372269999999958  0.0000
  Ge     Ge        0.561859315190573    0.990979004439261    0.115237855122669  0.0000
  Ge     Ge        0.358396625163082    0.676588407205444    0.280804173171798  0.0000
  Ge     Ge        0.854081207308828    0.339172193890635    0.708142361918306  0.0000
  Si     Si        0.460835681790993    0.984551678567705    0.369073481033594  0.0000
  Si     Si        0.955893361386738    0.028411496151351    0.634722107089856  0.0000
  Si     Si        0.549553356375639    0.013885014949885    0.632207029881453  0.0000
  Si     Si        0.944474977198429    0.008176646350694    0.120521268849250  0.0000
  Si     Si        0.444062528072887    0.014263157065211    0.877439184387301  0.0000
  Si     Si        0.058272726837328    0.017415739247867    0.889464942143518  0.0000
  Si     Si        0.159160063950166    0.308853803926507    0.275610392335793  0.0000
  Si     Si        0.653492846528965    0.703529780877729    0.720723824120974  0.0000
  Si     Si        0.833012785142231    0.748882145160667    0.719426314488735  0.0000
  Si     Si        0.669841836491288    0.296685266356542    0.711129028821575  0.0000
  Si     Si        0.174727979015047    0.718880765593885    0.280864054742971  0.0000
  Si     Si        0.338662809641915    0.264068910222125    0.269791851225716  0.0000
  Si     Si        0.676934454968405    0.275389335592714    0.008754145950172  0.0000
  Si     Si        0.832722630602760    0.724639255844974    0.019851508119473  0.0000
  Si     Si        0.333430503630030    0.294618480798189    0.969737673083191  0.0000
  Si     Si        0.171245935688314    0.731704429268214    0.983598709129573  0.0000
  Si     Si        0.353426074902603    0.694021482163038    0.976990820111400  0.0000
  Si     Si        0.153030091422721    0.330173435995032    0.979230884184181  0.0000
  Si     Si        0.652916942539208    0.672627719802317    0.017730472284048  0.0000
  Si     Si        0.858042690000143    0.329667768039372    0.012349241974138  0.0000
  O3     O3        0.098620196079442    0.201837069526940    0.360722905713868  0.0000
  O3     O3        0.428757759277340    0.786182844309033    0.366954973884598  0.0000
  O3     O3        0.921521288013212    0.224739688134377    0.621280260352751  0.0000
  O2     O2        0.592735602606016    0.824514451418254    0.639866089374773  0.0000
  O2     O2        0.878690033891881    0.904799828061806    0.646216170546269  0.0000
  O2     O2        0.613575653805106    0.170372609086276    0.630210864835903  0.0000
  O3     O3        0.121459738582855    0.836295398982275    0.367075528942766  0.0000
  O2     O2        0.385187627473749    0.108415604491686    0.342293907648501  0.0000
  O3     O3        0.007886052646168    0.977848603323257    0.517640823227251  0.0000
  O2     O2        0.498682237462975    0.029062043545859    0.504298653018888  0.0000
  O3     O3        0.979326772007589    0.978207115567340    0.259778835675444  0.0000
  O3     O3        0.526233591470107    0.020900208934609    0.264282717759377  0.0000
  O2     O2        0.009579768940736    0.000223700610717    0.760724420880924  0.0000
  O2     O2        0.490273846253658    0.035941332107854    0.747351383674778  0.0000
  O3     O3        0.642658396378271    0.126312435627152    0.099138252044928  0.0000
  O2     O2        0.873204509191115    0.870094772701112    0.106159493761678  0.0000
  O2     O2        0.374346015069315    0.158592083694227    0.877362968446543  0.0000
  O2     O2        0.128432570738218    0.874697413861644    0.891887335235350  0.0000
  O2     O2        0.407961164963427    0.816921297301402    0.887346748045227  0.0000
  O2     O2        0.093628945194000    0.215820095486422    0.894385669809022  0.0000
  O3     O3        0.592213426696992    0.774597790244068    0.101973396045624  0.0000
  O2     O2        0.913445382904826    0.208909131166293    0.103832051159832  0.0000
  O3     O3        0.497679659024301    0.058395472759022    0.997678231090731  0.0000
  O2     O2        0.007402128010203    0.968408292767521    0.012763568858511  0.0000
  O2     O2        0.150222716332381    0.514968702844249    0.300459225139982  0.0000
  O3     O3        0.371061048593459    0.453519864296880    0.307683579812583  0.0000
  O3     O3        0.867399807030227    0.562253501484664    0.681169905777297  0.0000
  O2     O2        0.639654181128637    0.498218240911868    0.691947359432156  0.0000
  O2     O2        0.247753282019912    0.247902688101082    0.308465218214268  0.0000
  O3     O3        0.265047037983522    0.738589736443933    0.319270970938926  0.0000
  O3     O3        0.758742767588809    0.285678707688431    0.667072250333168  0.0000
  O2     O2        0.741291001405779    0.757861602749925    0.680497255347224  0.0000
  O2     O2        0.140735050563144    0.269949424378329    0.126711112472553  0.0000
  O3     O3        0.376408816882343    0.732697409344360    0.122197041886675  0.0000
  O3     O3        0.875225665460358    0.287347555994743    0.866613283518854  0.0000
  O2     O2        0.640056496673587    0.738538321111361    0.870290552312273  0.0000
  O2     O2        0.840479388361625    0.777158312670747    0.870971696978649  0.0000
  O2     O2        0.665626834266744    0.232149656054046    0.859252234455826  0.0000
  O2     O2        0.162019267452131    0.779146836336231    0.132128581380776  0.0000
  O2     O2        0.346970799483629    0.239373648054331    0.117876914903435  0.0000
  O2     O2        0.636402321160032    0.464293863760746    0.033543769202739  0.0000
  O2     O2        0.874454865823025    0.534609202074503    0.043178747492061  0.0000
  O2     O2        0.369108604679196    0.490059030684617    0.945424112751597  0.0000
  O2     O2        0.134975808070331    0.537787228435032    0.958394734679895  0.0000
  O2     O2        0.768257250567691    0.287952559100954    0.041582201602366  0.0000
  O2     O2        0.742148378877276    0.715097987491389    0.059295839018400  0.0000
  O2     O2        0.241394463483353    0.292962091632599    0.937018617975620  0.0000
  O2     O2        0.262492766109366    0.736492904518342    0.950339289631688  0.0000
