data_c00284.vasp
_audit_creation_method             Generated by GULP
_audit_author_name                 Salvador R. G. Balestra
_symmetry_space_group_name_H-M     'P 1             '
_symmetry_Int_Tables_number        1

loop_
_symmetry_equiv_pos_site_id
_symmetry_equiv_pos_as_xyz
_cell_length_a                       17.2005
_cell_length_b                        7.6124
_cell_length_c                       10.2940
_cell_angle_alpha                   89.6413
_cell_angle_beta                    90.1756
_cell_angle_gamma                   90.0417

loop_
_atom_site_label
_atom_site_type_symbol
_atom_site_fract_x
_atom_site_fract_y
_atom_site_fract_z
_atom_site_charge
  Ge     Ge        0.052090000000021    0.000000000000000    0.372269999999958  0.0000
  Ge     Ge        0.936287349262703    0.006346540368612    0.127520411722478  0.0000
  Ge     Ge        0.052771161660419    0.013161212473173    0.884486352414635  0.0000
  Ge     Ge        0.830425058618488    0.293753200010330    0.699429319415569  0.0000
  Si     Si        0.451668694696195    0.018994040551480    0.348885528941381  0.0000
  Si     Si        0.949609763223021    0.011404949211451    0.626761715861009  0.0000
  Si     Si        0.546354857990965    0.026521098174647    0.612139798117588  0.0000
  Si     Si        0.554590720733307    0.018885648367145    0.097432705178219  0.0000
  Si     Si        0.441392916195962    0.019129923531235    0.861031566171065  0.0000
  Si     Si        0.170778808113818    0.288838374213904    0.259754838014760  0.0000
  Si     Si        0.336493212971467    0.729909287012717    0.260669042936444  0.0000
  Si     Si        0.663446616395178    0.738777269277652    0.700921636741041  0.0000
  Si     Si        0.843235308259730    0.707782169640004    0.702897973109400  0.0000
  Si     Si        0.647733757442652    0.335431027793727    0.696285934932799  0.0000
  Si     Si        0.157286851232620    0.698062869201231    0.262079902962865  0.0000
  Si     Si        0.349493942301602    0.326557356293185    0.260863506339113  0.0000
  Si     Si        0.645711011452792    0.337341387138399    0.000870949707258  0.0000
  Si     Si        0.843969126221874    0.691938114391943    0.004451810054690  0.0000
  Si     Si        0.350261406886298    0.335330019520103    0.957755897847279  0.0000
  Si     Si        0.152358856046706    0.695586976120777    0.962410344978616  0.0000
  Si     Si        0.332418721390046    0.731818905193052    0.957281286308018  0.0000
  Si     Si        0.170907368476223    0.294404122885556    0.959563867469323  0.0000
  Si     Si        0.664860676351758    0.732906471325826    0.004909488037268  0.0000
  Si     Si        0.824710620888076    0.289050911144945    0.006063842003060  0.0000
  O3     O3        0.118332221142586    0.167477511999903    0.348740619429784  0.0000
  O2     O2        0.387839243544333    0.863762426554854    0.344189825640597  0.0000
  O3     O3        0.887835284977051    0.166617891752155    0.601388578386855  0.0000
  O2     O2        0.613560647320694    0.878908720402596    0.619629156598862  0.0000
  O2     O2        0.901383261972057    0.828190422419999    0.619100879815230  0.0000
  O2     O2        0.585587932570187    0.219128397768838    0.617175763010099  0.0000
  O3     O3        0.098577256299770    0.800901285572861    0.351664401775928  0.0000
  O2     O2        0.408391919638662    0.206867977889255    0.343677525081233  0.0000
  O3     O3        0.022081371687135    0.010454431823131    0.532159763706602  0.0000
  O2     O2        0.499981808937886    0.004013597059482    0.479881511017016  0.0000
  O1     O1        0.968327570232185    0.013772034265081    0.284471467074815  0.0000
  O2     O2        0.512368435899621    0.998630564477661    0.233179661557086  0.0000
  O3     O3        0.982190967761736    0.042084206000992    0.771155765032879  0.0000
  O2     O2        0.484748691232832    0.999725940570694    0.726262490330630  0.0000
  O2     O2        0.587662755848619    0.216571757357195    0.083933402518611  0.0000
  O3     O3        0.902763009515095    0.796390935653674    0.093290310049632  0.0000
  O2     O2        0.406949038880690    0.215762540536208    0.872221408286774  0.0000
  O3     O3        0.093608950330866    0.805039362493742    0.875162913148171  0.0000
  O2     O2        0.372318338512742    0.876227073946606    0.865800086474348  0.0000
  O3     O3        0.127121502236856    0.165449847721417    0.865218108243689  0.0000
  O2     O2        0.624130944824320    0.877310619697409    0.093818150900968  0.0000
  O3     O3        0.863221750415908    0.159115190885050    0.107733224917028  0.0000
  O2     O2        0.497889594030442    0.973061574579912    0.979580742708643  0.0000
  O1     O1        0.013771015010796    0.056241888824981    0.032791313907411  0.0000
  O2     O2        0.144767722404964    0.490203598159005    0.279733905281192  0.0000
  O2     O2        0.363841996378413    0.531147801298901    0.292377565797286  0.0000
  O3     O3        0.861268554322753    0.507302825258273    0.676293836647861  0.0000
  O2     O2        0.634107155563531    0.542373514982366    0.668057521416173  0.0000
  O2     O2        0.261694871517472    0.271518551267517    0.297129259064710  0.0000
  O2     O2        0.245984005860141    0.750883511063416    0.297617801892613  0.0000
  O3     O3        0.733747620651747    0.281811712260404    0.655188356802371  0.0000
  O2     O2        0.754239631016077    0.755262149016009    0.663590629301102  0.0000
  O2     O2        0.159958217096461    0.232564036387705    0.109599484054792  0.0000
  O2     O2        0.346802887388472    0.774738861974718    0.108557589483266  0.0000
  O3     O3        0.838360276637172    0.225914259793287    0.859580432797685  0.0000
  O2     O2        0.654438814025784    0.780462436479134    0.853255974244045  0.0000
  O2     O2        0.857040583267345    0.751149406678265    0.855070673558016  0.0000
  O2     O2        0.634618185862022    0.296302709187611    0.848889120980832  0.0000
  O2     O2        0.138458072014684    0.752471564974436    0.112572833638354  0.0000
  O2     O2        0.365476601554589    0.291625796944525    0.109024956045416  0.0000
  O2     O2        0.627483397404708    0.540828428455422    0.031609560891549  0.0000
  O2     O2        0.860842172046333    0.484755698702576    0.018289945052588  0.0000
  O2     O2        0.367746600487284    0.539472860842543    0.926778594734499  0.0000
  O2     O2        0.135709430517284    0.489905630177611    0.943632245791115  0.0000
  O2     O2        0.733684280566807    0.294514969298716    0.039913055057752  0.0000
  O2     O2        0.755253858917083    0.733434604199511    0.044156568606143  0.0000
  O2     O2        0.261477593717513    0.293545015566940    0.922418242703082  0.0000
  O2     O2        0.241276519524964    0.737320911593542    0.924750809722427  0.0000
