data_c00225.vasp
_audit_creation_method             Generated by GULP
_audit_author_name                 Salvador R. G. Balestra
_symmetry_space_group_name_H-M     'P 1             '
_symmetry_Int_Tables_number        1

loop_
_symmetry_equiv_pos_site_id
_symmetry_equiv_pos_as_xyz
_cell_length_a                       17.3185
_cell_length_b                        7.6581
_cell_length_c                       10.2171
_cell_angle_alpha                   89.9182
_cell_angle_beta                    90.0599
_cell_angle_gamma                   89.5480

loop_
_atom_site_label
_atom_site_type_symbol
_atom_site_fract_x
_atom_site_fract_y
_atom_site_fract_z
_atom_site_charge
  Ge     Ge        0.052090000000021    0.000000000000000    0.372269999999958  0.0000
  Ge     Ge        0.564370005612190    0.019372208916913    0.128786900605906  0.0000
  Ge     Ge        0.346159200781555    0.704484493232351    0.279078202409569  0.0000
  Ge     Ge        0.669649453512632    0.723419792284294    0.707504003868302  0.0000
  Si     Si        0.457406598992356    0.000265516840880    0.377739514277921  0.0000
  Si     Si        0.955081363382944    0.996687020746420    0.639568102184400  0.0000
  Si     Si        0.553033132473025    0.015055786514410    0.634008058095496  0.0000
  Si     Si        0.945936464179674    0.998894029466359    0.123115958350396  0.0000
  Si     Si        0.448578802853010    0.004156173088166    0.886071538438157  0.0000
  Si     Si        0.060487253564331    0.012673071191858    0.891249954397240  0.0000
  Si     Si        0.167663539923529    0.293152802728305    0.268286250783827  0.0000
  Si     Si        0.840019485041021    0.289981621058993    0.710062107561709  0.0000
  Si     Si        0.850455608169032    0.689693189891126    0.703502165129858  0.0000
  Si     Si        0.661131654014961    0.311507757059715    0.713698232856697  0.0000
  Si     Si        0.165303000537093    0.701359390231865    0.277437338156893  0.0000
  Si     Si        0.345025613437976    0.293699541611050    0.269644878741594  0.0000
  Si     Si        0.661523742049859    0.327363066085889    0.016202349563412  0.0000
  Si     Si        0.852139876033863    0.689176594697173    0.012363953016235  0.0000
  Si     Si        0.345731880416880    0.312015190881425    0.961693132890088  0.0000
  Si     Si        0.164156017774895    0.706313613556914    0.971495629808667  0.0000
  Si     Si        0.343145492384230    0.709946706739614    0.965202068339489  0.0000
  Si     Si        0.167242502563430    0.306898306831562    0.963703627765894  0.0000
  Si     Si        0.675240789078620    0.729864386469586    0.015864822405746  0.0000
  Si     Si        0.839451802531982    0.294861628719118    0.016772570719319  0.0000
  O3     O3        0.111307745434379    0.177358746967165    0.352039804782914  0.0000
  O3     O3        0.411951913587658    0.819889360320621    0.368394189099882  0.0000
  O2     O2        0.890497450465605    0.150650375689866    0.629472715303250  0.0000
  O3     O3        0.609461790899084    0.851027231671972    0.613332220194532  0.0000
  O2     O2        0.912069974024801    0.809944212628076    0.628240865394684  0.0000
  O2     O2        0.605521137526546    0.188344866785294    0.629855398349120  0.0000
  O3     O3        0.104226103285945    0.808651934551204    0.360652776522167  0.0000
  O2     O2        0.398042549784663    0.155610045305393    0.343931693187041  0.0000
  O3     O3        0.017894426228202    0.015429100912556    0.529359686651459  0.0000
  O2     O2        0.487109883681385    0.026963029277309    0.525243554736008  0.0000
  O3     O3        0.972667182296049    0.001607362419062    0.271326774775077  0.0000
  O3     O3        0.531815291623950    0.005897410110550    0.286519097107036  0.0000
  O2     O2        0.997813452138152    0.011936929612065    0.778393097588729  0.0000
  O2     O2        0.511772441767282    0.995658287933926    0.773835215836875  0.0000
  O3     O3        0.604640036990056    0.223097112578418    0.107895420617599  0.0000
  O2     O2        0.910390962525817    0.809980042234078    0.091387955504554  0.0000
  O2     O2        0.400068609026792    0.185524538119110    0.876389390689703  0.0000
  O2     O2        0.110576858447370    0.834063685124656    0.885699808223492  0.0000
  O2     O2        0.390817372715880    0.839953677213644    0.872583175834840  0.0000
  O2     O2        0.116324564498427    0.179652944318821    0.874083215280795  0.0000
  O3     O3        0.632217285963476    0.855340981620281    0.114548353879111  0.0000
  O2     O2        0.883440685366972    0.152886754665712    0.103700900823763  0.0000
  O3     O3        0.488530356327643    0.986064768060664    0.025662075393291  0.0000
  O2     O2        0.019604364362625    0.031052112510479    0.031502180732622  0.0000
  O2     O2        0.151433454128341    0.495984196545304    0.297859170668640  0.0000
  O3     O3        0.365795127890522    0.487267116766298    0.311197587526008  0.0000
  O2     O2        0.868090205807922    0.485300973616804    0.674636650045948  0.0000
  O3     O3        0.640197060128802    0.510607002170075    0.688144753514202  0.0000
  O2     O2        0.256463113616771    0.249710915287350    0.304609246548512  0.0000
  O3     O3        0.251574109364640    0.749469336445050    0.320121335705764  0.0000
  O2     O2        0.749968345705835    0.272041373625459    0.672464033202253  0.0000
  O3     O3        0.764692806525999    0.737082814884201    0.657637230024966  0.0000
  O2     O2        0.155503153942228    0.253596646084419    0.114673757420771  0.0000
  O3     O3        0.358929436591498    0.752052068652441    0.115782705074659  0.0000
  O2     O2        0.849930500058744    0.250923169979871    0.864073288730151  0.0000
  O3     O3        0.663431643750961    0.793981873032960    0.867705053204172  0.0000
  O2     O2        0.858240718015068    0.725884771634296    0.858206825124987  0.0000
  O2     O2        0.649604912151143    0.264190721063895    0.866830284245139  0.0000
  O2     O2        0.153522937172990    0.750624703842146    0.124359295531328  0.0000
  O2     O2        0.358759492731140    0.271247367344321    0.114385834329913  0.0000
  O2     O2        0.642710809581865    0.532841327802337    0.025869850272460  0.0000
  O2     O2        0.873368538053399    0.487621298622168    0.044812639799535  0.0000
  O2     O2        0.369303010434269    0.511411972409841    0.932709761214040  0.0000
  O2     O2        0.140355128598536    0.506964752480047    0.940920819150671  0.0000
  O2     O2        0.749976424151784    0.289048387489907    0.057430801397641  0.0000
  O2     O2        0.765142213864447    0.730447942590690    0.056401499387789  0.0000
  O2     O2        0.256570865882022    0.282667573345452    0.923578073191478  0.0000
  O2     O2        0.252827325841377    0.734994588189516    0.932467963725406  0.0000
