data_c00231.vasp
_audit_creation_method             Generated by GULP
_audit_author_name                 Salvador R. G. Balestra
_symmetry_space_group_name_H-M     'P 1             '
_symmetry_Int_Tables_number        1

loop_
_symmetry_equiv_pos_site_id
_symmetry_equiv_pos_as_xyz
_cell_length_a                       17.1014
_cell_length_b                        7.6013
_cell_length_c                       10.2676
_cell_angle_alpha                   88.9290
_cell_angle_beta                    89.6395
_cell_angle_gamma                   90.5238

loop_
_atom_site_label
_atom_site_type_symbol
_atom_site_fract_x
_atom_site_fract_y
_atom_site_fract_z
_atom_site_charge
  Ge     Ge        0.052090000000021    0.000000000000000    0.372269999999958  0.0000
  Ge     Ge        0.555687564302588    0.020831052842202    0.104534664393312  0.0000
  Ge     Ge        0.335515902035013    0.747575616844177    0.283407426747192  0.0000
  Ge     Ge        0.356193921404247    0.361899836014912    0.960272420833316  0.0000
  Si     Si        0.453873060262309    0.026721059644513    0.365298377203947  0.0000
  Si     Si        0.954670486672635    0.025784983873226    0.637940781139039  0.0000
  Si     Si        0.555537179939499    0.032719284169080    0.616462899688846  0.0000
  Si     Si        0.944358595431263    0.017956050269999    0.125065606322676  0.0000
  Si     Si        0.446810232555515    0.043865372792903    0.856750250053907  0.0000
  Si     Si        0.058795057716383    0.029168316579126    0.891320135894363  0.0000
  Si     Si        0.176625630075639    0.288795412805840    0.265076422810800  0.0000
  Si     Si        0.837867305772172    0.311650602600499    0.713948225209401  0.0000
  Si     Si        0.669998104660791    0.743593119212047    0.715821227989987  0.0000
  Si     Si        0.849729266332030    0.714508465565393    0.710513280504145  0.0000
  Si     Si        0.657713916378477    0.336518889166621    0.718537535600444  0.0000
  Si     Si        0.152483160683606    0.689051380401977    0.282821508914918  0.0000
  Si     Si        0.356658329456622    0.336927368171327    0.268318650864279  0.0000
  Si     Si        0.654651960035314    0.341873144854564    0.020696760642038  0.0000
  Si     Si        0.853452877860208    0.703582928388208    0.015208189061237  0.0000
  Si     Si        0.154375588535836    0.712393678877755    0.979416955613444  0.0000
  Si     Si        0.335033853656205    0.769098427660210    0.975130264518077  0.0000
  Si     Si        0.173855029901348    0.317815817071438    0.960185686192246  0.0000
  Si     Si        0.673785569529274    0.741972627140489    0.018408347729904  0.0000
  Si     Si        0.835236202576321    0.306546652550598    0.018541503962191  0.0000
  O3     O3        0.130301374321673    0.139790800767328    0.342615658111290  0.0000
  O3     O3        0.386239622727213    0.881702547061170    0.387527405834265  0.0000
  O2     O2        0.889968248916989    0.179885292817699    0.630660912267246  0.0000
  O2     O2        0.616846144155407    0.873923525274217    0.630830951639038  0.0000
  O2     O2        0.909015579454282    0.838424890810408    0.627517944576299  0.0000
  O2     O2        0.599298188007358    0.219525345206057    0.634058613573282  0.0000
  O3     O3        0.088035873560623    0.788618547650874    0.365342157133104  0.0000
  O2     O2        0.414822257586966    0.219003424306136    0.355535202663765  0.0000
  O3     O3        0.017452257270840    0.044675907915596    0.525197216867106  0.0000
  O2     O2        0.521156354828197    0.028533430221327    0.472511471107916  0.0000
  O3     O3        0.973811004601615    0.029073694174685    0.270326248651910  0.0000
  O3     O3        0.494791570649124    0.973539387201242    0.231107933063379  0.0000
  O2     O2        0.999715192225405    0.039860111680369    0.773529477824825  0.0000
  O2     O2        0.482294760303913    0.010582391944915    0.714218635813798  0.0000
  O3     O3        0.594801121797362    0.231762934831370    0.108785900704261  0.0000
  O2     O2        0.912259905602941    0.821696182879654    0.097579026988447  0.0000
  O3     O3        0.422339041223777    0.246054944463024    0.868993860533581  0.0000
  O2     O2        0.098754491091198    0.837525366600168    0.894182039535145  0.0000
  O2     O2        0.369194642368503    0.922569472866315    0.880250063998002  0.0000
  O2     O2        0.124561660426834    0.181589457696933    0.874824020000884  0.0000
  O3     O3        0.632707898157657    0.875255698545352    0.110933320045708  0.0000
  O2     O2        0.876314405158762    0.160415112451097    0.106768322276851  0.0000
  O3     O3        0.509253721300037    0.980644434833293    0.961201755337447  0.0000
  O2     O2        0.015347607802126    0.065173794479086    0.027190662319564  0.0000
  O2     O2        0.139512365118267    0.478906472038203    0.294613836273611  0.0000
  O3     O3        0.374526300434830    0.539112197269331    0.291689480319805  0.0000
  O2     O2        0.865787096807911    0.510882241985948    0.679576389442482  0.0000
  O2     O2        0.641749846071091    0.543062533265473    0.692612306729295  0.0000
  O2     O2        0.266985897261403    0.290762020683986    0.308951214682235  0.0000
  O3     O3        0.238740806390624    0.739580349513789    0.330362200570646  0.0000
  O2     O2        0.746545971657499    0.290442284435384    0.678546240754909  0.0000
  O2     O2        0.760770441776944    0.763184611908554    0.673168808171053  0.0000
  O2     O2        0.175259096341094    0.253268108951376    0.110850423946957  0.0000
  O3     O3        0.342821177427231    0.824586794785941    0.124273071610071  0.0000
  O2     O2        0.847654251887493    0.266076546931612    0.866632099059519  0.0000
  O2     O2        0.662463162959587    0.795634254711385    0.866441742262610  0.0000
  O2     O2        0.865104262421563    0.748121378005628    0.862548261688989  0.0000
  O2     O2        0.641360745508217    0.288400772297655    0.870011701067334  0.0000
  O2     O2        0.142678502164765    0.752717667806852    0.131872842897874  0.0000
  O3     O3        0.370405474711853    0.288468983112988    0.118405957454056  0.0000
  O2     O2        0.637571037832930    0.546719793086739    0.040478223770169  0.0000
  O2     O2        0.871703062571481    0.499165750871184    0.046728775653586  0.0000
  O3     O3        0.377109977116387    0.584257876817952    0.951645450934270  0.0000
  O2     O2        0.133572120787890    0.509869287391457    0.949101074804889  0.0000
  O2     O2        0.744135571810584    0.300147209925327    0.056647434720082  0.0000
  O2     O2        0.764899816001964    0.743500992924877    0.055086122281404  0.0000
  O3     O3        0.261789410888796    0.326403581649493    0.908069243557950  0.0000
  O2     O2        0.244022795171126    0.746123945917271    0.939614545879285  0.0000
