data_c00264.vasp
_audit_creation_method             Generated by GULP
_audit_author_name                 Salvador R. G. Balestra
_symmetry_space_group_name_H-M     'P 1             '
_symmetry_Int_Tables_number        1

loop_
_symmetry_equiv_pos_site_id
_symmetry_equiv_pos_as_xyz
_cell_length_a                       17.0416
_cell_length_b                        7.6277
_cell_length_c                       10.3378
_cell_angle_alpha                   89.7253
_cell_angle_beta                    90.9546
_cell_angle_gamma                   90.2549

loop_
_atom_site_label
_atom_site_type_symbol
_atom_site_fract_x
_atom_site_fract_y
_atom_site_fract_z
_atom_site_charge
  Ge     Ge        0.052090000000021    0.000000000000000    0.372269999999958  0.0000
  Ge     Ge        0.551172799157312    0.980802969104304    0.119189353754694  0.0000
  Ge     Ge        0.824458140247496    0.711157580168800    0.029489595477833  0.0000
  Ge     Ge        0.326707478234592    0.277616161338790    0.969284593604128  0.0000
  Si     Si        0.452857271543516    0.986139403351597    0.375524106862730  0.0000
  Si     Si        0.946602443878629    0.999156287278048    0.629358309550625  0.0000
  Si     Si        0.548877176749275    0.976948826236878    0.637054982888277  0.0000
  Si     Si        0.939850471572576    0.994032772987307    0.117192690831482  0.0000
  Si     Si        0.437411779866659    0.996832180024256    0.878216577790412  0.0000
  Si     Si        0.047607979125014    0.993880613001765    0.882917812183154  0.0000
  Si     Si        0.157376941509643    0.309257101392476    0.289895344144361  0.0000
  Si     Si        0.350493811262236    0.680205561367651    0.275346048271249  0.0000
  Si     Si        0.845824796855171    0.304696539560608    0.722398466550359  0.0000
  Si     Si        0.652026603130646    0.667588049417376    0.714950622312683  0.0000
  Si     Si        0.830412692647446    0.708564775418872    0.721055502346186  0.0000
  Si     Si        0.664909910316495    0.266754930470935    0.716628206484592  0.0000
  Si     Si        0.169453705753226    0.712705604507016    0.287547991384594  0.0000
  Si     Si        0.337248727672010    0.274697513408657    0.277186282907556  0.0000
  Si     Si        0.667522143905272    0.263975501295604    0.017291111104165  0.0000
  Si     Si        0.160335218768256    0.709852158572554    0.987801064878619  0.0000
  Si     Si        0.343727941801611    0.681516053508117    0.975712533149058  0.0000
  Si     Si        0.143140051654639    0.309358259122768    0.987595248617359  0.0000
  Si     Si        0.642746548429136    0.657601413926619    0.019186104064164  0.0000
  Si     Si        0.850104797541450    0.312768418083010    0.022245444317510  0.0000
  O3     O3        0.100213002357012    0.199330090563628    0.378809833964746  0.0000
  O2     O2        0.410537784955185    0.797362751703837    0.358517730787951  0.0000
  O2     O2        0.903698656589115    0.187423868381977    0.638251728409689  0.0000
  O2     O2        0.591346574701394    0.788281355755837    0.634289634872617  0.0000
  O2     O2        0.883570041893629    0.842122803446829    0.640188098432140  0.0000
  O2     O2        0.614439086898830    0.130525536899270    0.631016566034105  0.0000
  O3     O3        0.123201352872744    0.838463230757131    0.380250987379633  0.0000
  O2     O2        0.390596577862556    0.143850149496597    0.362099786132727  0.0000
  O3     O3        0.984957529096307    0.983012840595257    0.491599856296708  0.0000
  O2     O2        0.489289638130225    0.994296695695965    0.518243021542478  0.0000
  O3     O3        0.002397685765059    0.972361279371353    0.228917486798637  0.0000
  O3     O3        0.522138038697721    0.005749088065176    0.275355053620600  0.0000
  O2     O2        0.016011007063606    0.984492741934788    0.736555095249278  0.0000
  O2     O2        0.499580474114166    0.996520459052951    0.766006988101060  0.0000
  O3     O3        0.632999211451767    0.113718897976125    0.104681562196334  0.0000
  O3     O3        0.868378983654037    0.859826307007431    0.131233207719508  0.0000
  O3     O3        0.370326846019407    0.140882771531260    0.860811048900072  0.0000
  O2     O2        0.116997848707096    0.851459494397873    0.897341788064901  0.0000
  O2     O2        0.395811352412511    0.806353399327841    0.886395531270191  0.0000
  O2     O2        0.079001557715977    0.190451724688504    0.912722832053641  0.0000
  O3     O3        0.575981248180764    0.765701396482612    0.087850294511639  0.0000
  O2     O2        0.905079224943979    0.191109440924620    0.112348731301476  0.0000
  O3     O3        0.480112875301169    0.050420869249026    0.012098062601452  0.0000
  O2     O2        0.978949764423639    0.942442183441582    0.980372333089418  0.0000
  O2     O2        0.141335140225551    0.513814078524709    0.312164038665292  0.0000
  O2     O2        0.368055530315258    0.474436706109716    0.296010460943403  0.0000
  O2     O2        0.862658739891478    0.510990460337172    0.700715463739014  0.0000
  O2     O2        0.633290968974200    0.463062367946288    0.688158394514735  0.0000
  O2     O2        0.247647108816541    0.262362969756797    0.324473004189609  0.0000
  O2     O2        0.262471881801747    0.725975590106661    0.316536542162079  0.0000
  O2     O2        0.756476497472740    0.257559227772999    0.680632052305127  0.0000
  O2     O2        0.740016146837789    0.714227851251259    0.670144391812432  0.0000
  O2     O2        0.140873931652349    0.260030830064518    0.139643451234881  0.0000
  O2     O2        0.363327747181234    0.729950798160707    0.125222472934778  0.0000
  O2     O2        0.861988637563083    0.258701027996305    0.872645276198671  0.0000
  O2     O2        0.643982468440014    0.707078328419684    0.866730635441141  0.0000
  O3     O3        0.831651036434002    0.766837166873227    0.868572534292574  0.0000
  O2     O2        0.656020819751537    0.213106688368590    0.866454358019126  0.0000
  O2     O2        0.152805436686282    0.765738616676413    0.137507569541396  0.0000
  O3     O3        0.341177814720716    0.217922990446373    0.129080164048205  0.0000
  O2     O2        0.625061242752779    0.450760052754946    0.039304178190354  0.0000
  O3     O3        0.871354858234984    0.511483339778689    0.049215976887102  0.0000
  O3     O3        0.365332813257333    0.484461954146445    0.946179366167336  0.0000
  O2     O2        0.123460953071471    0.515806061839405    0.966703368297193  0.0000
  O2     O2        0.758791363136307    0.285539058070737    0.054342211457949  0.0000
  O3     O3        0.728100193667475    0.704163269461330    0.076404117286405  0.0000
  O3     O3        0.227977723861451    0.271846017562976    0.932673905772429  0.0000
  O2     O2        0.251117929390907    0.709141668316306    0.948324226281689  0.0000
