data_c00213.vasp
_audit_creation_method             Generated by GULP
_audit_author_name                 Salvador R. G. Balestra
_symmetry_space_group_name_H-M     'P 1             '
_symmetry_Int_Tables_number        1

loop_
_symmetry_equiv_pos_site_id
_symmetry_equiv_pos_as_xyz
_cell_length_a                       17.2235
_cell_length_b                        7.6320
_cell_length_c                       10.2395
_cell_angle_alpha                   89.9567
_cell_angle_beta                    91.3865
_cell_angle_gamma                   89.6474

loop_
_atom_site_label
_atom_site_type_symbol
_atom_site_fract_x
_atom_site_fract_y
_atom_site_fract_z
_atom_site_charge
  Ge     Ge        0.052090000000021    0.000000000000000    0.372269999999958  0.0000
  Ge     Ge        0.564986961963505    0.016244588661827    0.144256581792173  0.0000
  Ge     Ge        0.172949079620988    0.285312978019430    0.289264755406551  0.0000
  Ge     Ge        0.654903193321729    0.323505223375690    0.726878724234374  0.0000
  Si     Si        0.456751107894851    0.008359671640631    0.385863142396218  0.0000
  Si     Si        0.949260848634780    0.999479018165742    0.626603300721652  0.0000
  Si     Si        0.547991763754168    0.018462838371658    0.649949842336218  0.0000
  Si     Si        0.951501651733571    0.003991078623674    0.104680120104043  0.0000
  Si     Si        0.445806898501557    0.005572185218094    0.901472055400207  0.0000
  Si     Si        0.060515246145215    0.002551342563678    0.867598235990426  0.0000
  Si     Si        0.341258342765806    0.720358296201788    0.282704088979372  0.0000
  Si     Si        0.835260690815951    0.295912739657990    0.721069694626445  0.0000
  Si     Si        0.667779079381082    0.736527716498108    0.731675258753364  0.0000
  Si     Si        0.847005575545460    0.696908153166356    0.725578503139827  0.0000
  Si     Si        0.161387365646357    0.699036564872168    0.285319954295391  0.0000
  Si     Si        0.354238950595249    0.317591231833546    0.287301537589774  0.0000
  Si     Si        0.658493390015762    0.329398593878635    0.036070675808164  0.0000
  Si     Si        0.856060026475745    0.687098254946069    0.030502235838850  0.0000
  Si     Si        0.347210331460056    0.319527389863225    0.979332280079106  0.0000
  Si     Si        0.156869742030463    0.694203440575176    0.982455324618301  0.0000
  Si     Si        0.336169425180835    0.715617753770073    0.976870869797387  0.0000
  Si     Si        0.168237566101692    0.289248475283542    0.979855208442731  0.0000
  Si     Si        0.677081113655277    0.730308908081635    0.033955112282968  0.0000
  Si     Si        0.836302201242636    0.294527670222289    0.030260011976281  0.0000
  O1     O1        0.119133867897626    0.162838996633285    0.390679846254257  0.0000
  O2     O2        0.392629135835073    0.858623063102159    0.362318888429209  0.0000
  O2     O2        0.892900261140699    0.164398184249084    0.649822393485159  0.0000
  O2     O2        0.618131676169284    0.875996112569559    0.646573769865955  0.0000
  O2     O2        0.902980148380782    0.818606956834570    0.643186898290200  0.0000
  O3     O3        0.586692838431641    0.207032684129008    0.638251532507542  0.0000
  O3     O3        0.104743369069366    0.807175462505719    0.375148794474751  0.0000
  O2     O2        0.419553221581621    0.200840276327980    0.360649481007510  0.0000
  O3     O3        0.978339623574184    0.004793155219075    0.480735649702563  0.0000
  O2     O2        0.485167914014434    0.989840125863074    0.535124347291087  0.0000
  O3     O3        0.011127788974005    0.037557407344036    0.219451760093591  0.0000
  O3     O3        0.531206509314503    0.986545689659780    0.298642857937999  0.0000
  O2     O2        0.025913816098216    0.006151751090557    0.720553234378791  0.0000
  O2     O2        0.503904267038902    0.994128721006725    0.784344695252746  0.0000
  O3     O3        0.601569678860618    0.224938147985266    0.127507467314496  0.0000
  O2     O2        0.915158024390875    0.808393703728301    0.113663168418330  0.0000
  O2     O2        0.404041082183969    0.196038104056389    0.898221935422696  0.0000
  O2     O2        0.100957159688913    0.813296812017203    0.891432088531313  0.0000
  O2     O2        0.380941618715941    0.853367565288447    0.888489069366934  0.0000
  O2     O2        0.121495435699895    0.161137225048477    0.881963808285673  0.0000
  O3     O3        0.638647092882227    0.864365859418560    0.129760124501642  0.0000
  O2     O2        0.882117216664730    0.146471289050503    0.111067528287908  0.0000
  O3     O3        0.490554619412379    0.971806835600054    0.036530493529503  0.0000
  O2     O2        0.991237914110384    0.032568503609454    0.966016894344408  0.0000
  O3     O3        0.143880283624323    0.498605768171089    0.307853557084013  0.0000
  O2     O2        0.369681316041094    0.523071338364484    0.316724465659942  0.0000
  O2     O2        0.863282462474799    0.494056049380337    0.691429915307674  0.0000
  O3     O3        0.636025948907143    0.543700246750027    0.706983980020663  0.0000
  O3     O3        0.270077292610053    0.264646147287909    0.333032280096516  0.0000
  O2     O2        0.251504786048238    0.742936310507681    0.320719438623553  0.0000
  O3     O3        0.747072897136637    0.275153654843200    0.672467993758241  0.0000
  O2     O2        0.757685978885207    0.744450546209505    0.689996701358393  0.0000
  O3     O3        0.160120257617973    0.224364566807985    0.127032186890133  0.0000
  O2     O2        0.349888976737963    0.758589176502635    0.129435010628295  0.0000
  O2     O2        0.836318270574155    0.258575915912261    0.875816793269693  0.0000
  O2     O2        0.663056200547778    0.790867652222630    0.883943334998065  0.0000
  O2     O2        0.865411402771238    0.731169739337498    0.877987222908758  0.0000
  O3     O3        0.644518880132554    0.264897013760143    0.888335199676844  0.0000
  O2     O2        0.145155723258569    0.750106967146913    0.132662287452147  0.0000
  O2     O2        0.360504602802564    0.281808132289050    0.132656621131768  0.0000
  O2     O2        0.641007542680742    0.536472976087051    0.048055012511278  0.0000
  O2     O2        0.875777525357395    0.483497491057823    0.059786628601351  0.0000
  O2     O2        0.367704675342828    0.520389364007730    0.946313822513561  0.0000
  O2     O2        0.136391488101393    0.489133702432422    0.964324594759363  0.0000
  O2     O2        0.748254551165993    0.292609511545234    0.078210057937695  0.0000
  O2     O2        0.768344239992922    0.726006302763908    0.070478822808090  0.0000
  O2     O2        0.258130791417465    0.281573977322791    0.939873015280928  0.0000
  O2     O2        0.244992183280406    0.727992384116211    0.941263274304223  0.0000
