data_c00253.vasp
_audit_creation_method             Generated by GULP
_audit_author_name                 Salvador R. G. Balestra
_symmetry_space_group_name_H-M     'P 1             '
_symmetry_Int_Tables_number        1

loop_
_symmetry_equiv_pos_site_id
_symmetry_equiv_pos_as_xyz
_cell_length_a                       17.1863
_cell_length_b                        7.6340
_cell_length_c                       10.2690
_cell_angle_alpha                   90.6355
_cell_angle_beta                    90.4984
_cell_angle_gamma                   90.2512

loop_
_atom_site_label
_atom_site_type_symbol
_atom_site_fract_x
_atom_site_fract_y
_atom_site_fract_z
_atom_site_charge
  Ge     Ge        0.052090000000021    0.000000000000000    0.372269999999958  0.0000
  Ge     Ge        0.555410748060293    0.011610010580164    0.136941075760287  0.0000
  Ge     Ge        0.665959715591266    0.721624435567875    0.723535813249958  0.0000
  Ge     Ge        0.331367017183820    0.720469393077399    0.975793893440802  0.0000
  Si     Si        0.449788702453547    0.020452895563371    0.388415683661473  0.0000
  Si     Si        0.952263470198717    0.994135533524416    0.635165847534596  0.0000
  Si     Si        0.549471528313046    0.009351673498103    0.642760441308027  0.0000
  Si     Si        0.944482661719282    0.009326400526512    0.113347372262524  0.0000
  Si     Si        0.443619548792683    0.003734858426655    0.891319464499894  0.0000
  Si     Si        0.056922324257202    0.994747217714235    0.880670431918897  0.0000
  Si     Si        0.170618193228344    0.286815771296197    0.291648869800142  0.0000
  Si     Si        0.336088127652671    0.728708257889980    0.286309807922928  0.0000
  Si     Si        0.836950658740163    0.287471678025482    0.730856921416055  0.0000
  Si     Si        0.848721516541601    0.688951251834380    0.726010199335116  0.0000
  Si     Si        0.658002321328596    0.308239659036402    0.724619186296033  0.0000
  Si     Si        0.157509293535639    0.689932619011935    0.290831821194705  0.0000
  Si     Si        0.350178018980262    0.324242284090014    0.285651830330228  0.0000
  Si     Si        0.653586828018663    0.324082963294573    0.026797265779756  0.0000
  Si     Si        0.848425114252014    0.690956241725556    0.032348971326847  0.0000
  Si     Si        0.348810331445992    0.318086274247181    0.983175387439279  0.0000
  Si     Si        0.149370669528843    0.681850699617277    0.986061231507287  0.0000
  Si     Si        0.167030243561382    0.282546233512368    0.989578191986972  0.0000
  Si     Si        0.669165879698196    0.728257315970187    0.030110013933391  0.0000
  Si     Si        0.832023182264665    0.296189032623890    0.036648591835972  0.0000
  O3     O3        0.123529072451723    0.160569779533171    0.383552834720191  0.0000
  O2     O2        0.387642744730133    0.862782537364453    0.371971478605456  0.0000
  O2     O2        0.890149582515323    0.148574775666928    0.656888016571938  0.0000
  O3     O3        0.606337100536126    0.845708965455816    0.626512465852413  0.0000
  O2     O2        0.910690005687004    0.805647110849223    0.649088944375154  0.0000
  O2     O2        0.602268212193245    0.184414041999178    0.637445837094416  0.0000
  O3     O3        0.098284830404801    0.799890518206160    0.375916067775577  0.0000
  O2     O2        0.408664821158749    0.208772126095518    0.370562531978927  0.0000
  O3     O3        0.984287798840793    0.013522870010128    0.491956652981006  0.0000
  O2     O2        0.482675520097428    0.013994688429035    0.534383430660514  0.0000
  O3     O3        0.003509304458436    0.035669022184920    0.229015435088782  0.0000
  O3     O3        0.521444889447604    0.000848205129783    0.292773437042515  0.0000
  O2     O2        0.025924286499287    0.007833185890777    0.733424206468989  0.0000
  O2     O2        0.507687200343953    0.996818999564792    0.781332703166170  0.0000
  O3     O3        0.592740992136508    0.218829763018112    0.110698495635539  0.0000
  O2     O2        0.906059369037529    0.815185081890624    0.116127681856173  0.0000
  O2     O2        0.402946867574120    0.194248376620781    0.896060158458122  0.0000
  O2     O2        0.087654015663681    0.798152948581615    0.906723703966386  0.0000
  O3     O3        0.377000927550764    0.859111540258917    0.870829842287417  0.0000
  O2     O2        0.125752584170043    0.137478980377678    0.898593046831595  0.0000
  O3     O3        0.627130231928821    0.854867083006887    0.129215442510806  0.0000
  O2     O2        0.876864379026668    0.155107359943538    0.122982639289940  0.0000
  O3     O3        0.483012575095283    0.956647643193704    0.028545462353580  0.0000
  O2     O2        0.987468961881648    0.041041518017638    0.977159610218659  0.0000
  O2     O2        0.141966682755120    0.485286365820168    0.313932582103306  0.0000
  O2     O2        0.366780208162877    0.530525519022504    0.308204844367068  0.0000
  O2     O2        0.865599274042250    0.483730298103752    0.697640590599048  0.0000
  O3     O3        0.637207025978709    0.507175021685662    0.700047711620051  0.0000
  O2     O2        0.262315410649421    0.276675273498487    0.324484841349092  0.0000
  O2     O2        0.246205555799289    0.740316387510782    0.329851795761630  0.0000
  O2     O2        0.747250861295265    0.266954110264662    0.685014588916686  0.0000
  O3     O3        0.762580010815735    0.737716300261052    0.680506786420597  0.0000
  O2     O2        0.157237676594407    0.229988303781681    0.140353448210778  0.0000
  O3     O3        0.342585005275059    0.781541541610759    0.136973756226727  0.0000
  O2     O2        0.841464039481417    0.252415480839526    0.884355090143750  0.0000
  O3     O3        0.656867848414051    0.791986084915784    0.882895789450344  0.0000
  O2     O2        0.859064135512815    0.728162364554650    0.879717473075693  0.0000
  O2     O2        0.645663734552627    0.261894324517743    0.876470423640944  0.0000
  O2     O2        0.144343360558782    0.734916600261268    0.138497105480417  0.0000
  O2     O2        0.365298003395548    0.275224733387227    0.134880399637308  0.0000
  O2     O2        0.635613886625915    0.530297717217735    0.037939988884136  0.0000
  O2     O2        0.867451255338087    0.489612140294239    0.066282085270711  0.0000
  O3     O3        0.370542622633464    0.514896422534475    0.952867479505594  0.0000
  O2     O2        0.130345677099993    0.474804502971683    0.965769656705870  0.0000
  O2     O2        0.741652324796119    0.287590317918900    0.075845497487441  0.0000
  O2     O2        0.759997948305872    0.731008162496276    0.069197567584132  0.0000
  O2     O2        0.257651388509610    0.285153678415314    0.952263123480435  0.0000
  O3     O3        0.234455871075218    0.720476330298723    0.933892580158889  0.0000
