data_c00203.vasp
_audit_creation_method             Generated by GULP
_audit_author_name                 Salvador R. G. Balestra
_symmetry_space_group_name_H-M     'P 1             '
_symmetry_Int_Tables_number        1

loop_
_symmetry_equiv_pos_site_id
_symmetry_equiv_pos_as_xyz
_cell_length_a                       17.0283
_cell_length_b                        7.5653
_cell_length_c                       10.4925
_cell_angle_alpha                   89.1905
_cell_angle_beta                    90.3382
_cell_angle_gamma                   90.1882

loop_
_atom_site_label
_atom_site_type_symbol
_atom_site_fract_x
_atom_site_fract_y
_atom_site_fract_z
_atom_site_charge
  Ge     Ge        0.052090000000021    0.000000000000000    0.372269999999958  0.0000
  Ge     Ge        0.562205641261670    0.977934471842746    0.118519582632186  0.0000
  Ge     Ge        0.057792306868093    0.004620626288572    0.891032973597751  0.0000
  Ge     Ge        0.852367850231708    0.323383428648442    0.705656481904025  0.0000
  Si     Si        0.456356459773379    0.983523665642602    0.369506246600726  0.0000
  Si     Si        0.953266298013182    0.011282193716760    0.631377494658584  0.0000
  Si     Si        0.547367171384219    0.992558814855022    0.633102468374982  0.0000
  Si     Si        0.945020855766965    0.993286484687436    0.125384725120645  0.0000
  Si     Si        0.446883107555806    0.995996511506784    0.881510457980926  0.0000
  Si     Si        0.157238609609006    0.310461989340436    0.275423381789287  0.0000
  Si     Si        0.356597642155488    0.673886337497722    0.277118928257491  0.0000
  Si     Si        0.650810600522191    0.684434416908939    0.726143531650855  0.0000
  Si     Si        0.831709403963284    0.734276316976002    0.719390922329644  0.0000
  Si     Si        0.667819770587228    0.276711302541255    0.714627345379401  0.0000
  Si     Si        0.176219571151821    0.720917755831577    0.273268620068692  0.0000
  Si     Si        0.337812169456709    0.268651662575246    0.276385636290583  0.0000
  Si     Si        0.677562594918583    0.258152228052975    0.011205674596705  0.0000
  Si     Si        0.833535698538636    0.711422113851440    0.017844417744657  0.0000
  Si     Si        0.335045559315098    0.275261616597063    0.978855730684999  0.0000
  Si     Si        0.177024394880705    0.725987524581978    0.979366796181295  0.0000
  Si     Si        0.358179857437693    0.673197862865722    0.980735286083139  0.0000
  Si     Si        0.153625503764806    0.323209586583767    0.981523819991234  0.0000
  Si     Si        0.652352429161538    0.656873546625864    0.021099422205835  0.0000
  Si     Si        0.859370102706992    0.314047394542897    0.007989397364980  0.0000
  O3     O3        0.096296752502138    0.205725486655847    0.361991250548952  0.0000
  O2     O2        0.417849576390745    0.788414240877005    0.358553597307341  0.0000
  O3     O3        0.919553577157695    0.208502128970181    0.616660676668110  0.0000
  O2     O2        0.590428822063206    0.803349292579379    0.644768373212980  0.0000
  O2     O2        0.875370317879582    0.886386818773441    0.638691969666724  0.0000
  O2     O2        0.611694297817729    0.149516852618757    0.633336299487649  0.0000
  O3     O3        0.125008934700138    0.843766729290771    0.360089401417549  0.0000
  O2     O2        0.387829919101158    0.129979301466572    0.359192323060064  0.0000
  O3     O3        0.011911667155595    0.966927649602816    0.520196839557975  0.0000
  O2     O2        0.499084896990788    0.000343988508203    0.503554832386540  0.0000
  O3     O3        0.974201229828038    0.979634927989181    0.268993707979716  0.0000
  O3     O3        0.520859506027477    0.015980913041889    0.262538792623523  0.0000
  O3     O3        0.999743190607521    0.976478054043333    0.762294407192012  0.0000
  O2     O2        0.485463584542911    0.019275346086578    0.744911527186380  0.0000
  O3     O3        0.644473745358719    0.111720806501103    0.104243411239132  0.0000
  O2     O2        0.873032350547033    0.855936629594505    0.107367929447442  0.0000
  O2     O2        0.373607335085376    0.130670439814668    0.889358887755215  0.0000
  O3     O3        0.137261214670030    0.861733062802414    0.884384422423564  0.0000
  O2     O2        0.417564059060949    0.793071695521308    0.898642553267960  0.0000
  O3     O3        0.093885581895998    0.218998178602661    0.893731100774939  0.0000
  O3     O3        0.593244427268624    0.760830834882213    0.108940087676097  0.0000
  O2     O2        0.917686332314908    0.194490076086374    0.093530040327723  0.0000
  O3     O3        0.504788475136330    0.048955412267924    0.993705177584694  0.0000
  O3     O3        0.013233675350363    0.939990040061958    0.030573560525514  0.0000
  O2     O2        0.147430321888060    0.519329050410244    0.293431951855189  0.0000
  O2     O2        0.368111417354331    0.466360892860096    0.307211725222881  0.0000
  O3     O3        0.865938075980461    0.546346875789325    0.680768943747479  0.0000
  O2     O2        0.637440426743775    0.478226453293960    0.697393702390666  0.0000
  O2     O2        0.246137079298226    0.251656034658281    0.311611852388802  0.0000
  O2     O2        0.268308564308291    0.732535155963541    0.309877074254077  0.0000
  O3     O3        0.756827887654178    0.266954316845390    0.668071646596354  0.0000
  O2     O2        0.739038272915897    0.739596073916321    0.687146286552095  0.0000
  O2     O2        0.138860842429514    0.261013909489399    0.128328894887174  0.0000
  O2     O2        0.375901259721093    0.714073561430556    0.128954881287876  0.0000
  O3     O3        0.876449936910859    0.271152363755915    0.862167289513899  0.0000
  O2     O2        0.636309444239110    0.721497116522229    0.875168752214720  0.0000
  O2     O2        0.843231725285619    0.767594249255635    0.870080676514376  0.0000
  O2     O2        0.665134846006447    0.213141511380104    0.862178113997693  0.0000
  O2     O2        0.165695942009187    0.783612289778940    0.126379721287606  0.0000
  O2     O2        0.348920970208555    0.225947483055956    0.127500460241488  0.0000
  O2     O2        0.637301817076504    0.448007939867267    0.037194958998462  0.0000
  O2     O2        0.875130379923173    0.520561681794638    0.038040859606984  0.0000
  O2     O2        0.373585534384362    0.467929540447049    0.950986668815587  0.0000
  O2     O2        0.139197205968186    0.531397174828151    0.962922952254537  0.0000
  O2     O2        0.769829865113081    0.269936436169286    0.040140822822887  0.0000
  O2     O2        0.742585599512394    0.700905875127377    0.056169794822752  0.0000
  O2     O2        0.243131588405804    0.277547591968270    0.945884246399747  0.0000
  O2     O2        0.269061215920302    0.720725732928119    0.946923260075317  0.0000
