data_c00200.vasp
_audit_creation_method             Generated by GULP
_audit_author_name                 Salvador R. G. Balestra
_symmetry_space_group_name_H-M     'P 1             '
_symmetry_Int_Tables_number        1

loop_
_symmetry_equiv_pos_site_id
_symmetry_equiv_pos_as_xyz
_cell_length_a                       16.9230
_cell_length_b                        7.5683
_cell_length_c                       10.5329
_cell_angle_alpha                   90.1634
_cell_angle_beta                    90.9526
_cell_angle_gamma                   89.5606

loop_
_atom_site_label
_atom_site_type_symbol
_atom_site_fract_x
_atom_site_fract_y
_atom_site_fract_z
_atom_site_charge
  Ge     Ge        0.052090000000021    0.000000000000000    0.372269999999958  0.0000
  Ge     Ge        0.561027727852482    0.982707631357793    0.115472696631200  0.0000
  Ge     Ge        0.440895449366054    0.972457859382817    0.874619478853325  0.0000
  Ge     Ge        0.170885183610169    0.713929212734190    0.979092876146799  0.0000
  Si     Si        0.455089084238276    0.974978680911805    0.364174554859469  0.0000
  Si     Si        0.948245603968966    0.994983174818987    0.629846999802516  0.0000
  Si     Si        0.545477646088844    0.981214449436582    0.628925378089919  0.0000
  Si     Si        0.950901813478342    0.983560762039131    0.111176898632891  0.0000
  Si     Si        0.057540144917200    0.993773338827013    0.877992185842227  0.0000
  Si     Si        0.152566984116650    0.310730505075977    0.281184724718067  0.0000
  Si     Si        0.356241151672884    0.660935324164475    0.272439939181074  0.0000
  Si     Si        0.846642229907619    0.303732561660677    0.711770502740260  0.0000
  Si     Si        0.649937214464071    0.673997801544441    0.727921639475856  0.0000
  Si     Si        0.831478329280114    0.708314714803976    0.718004009413524  0.0000
  Si     Si        0.665108716791730    0.265198178386238    0.723567870389508  0.0000
  Si     Si        0.175700226393331    0.719929628666696    0.278208798832256  0.0000
  Si     Si        0.334801580515316    0.256897364916280    0.278166232054845  0.0000
  Si     Si        0.677305221474243    0.257759474401248    0.017569173473185  0.0000
  Si     Si        0.836504781439326    0.701971619163175    0.014641568981318  0.0000
  Si     Si        0.326348367300321    0.250357686243945    0.984018721831625  0.0000
  Si     Si        0.355689501312813    0.644197292677965    0.975398782987587  0.0000
  Si     Si        0.142219651125028    0.312099277755218    0.990398402337639  0.0000
  Si     Si        0.654073497301686    0.658621797124907    0.021956436139488  0.0000
  Si     Si        0.859279528904674    0.304575316269491    0.007387956869668  0.0000
  O3     O3        0.094027955788977    0.207968509846030    0.370926589968579  0.0000
  O2     O2        0.420035858589094    0.777396791277909    0.349542348243504  0.0000
  O2     O2        0.903946145578888    0.185572538763662    0.625100030377580  0.0000
  O2     O2        0.587052767357321    0.790115559022095    0.648858643113186  0.0000
  O2     O2        0.881332465644855    0.843958072465741    0.635785284063581  0.0000
  O2     O2        0.610754791787067    0.135354578693501    0.640406496867191  0.0000
  O3     O3        0.128120802811183    0.846388813345221    0.370183768148926  0.0000
  O2     O2        0.383406962928732    0.118433334914764    0.364993569179916  0.0000
  O3     O3        0.000322235821405    0.969323883538389    0.508512152179841  0.0000
  O2     O2        0.506542522452831    0.986963342819419    0.491007232722520  0.0000
  O3     O3        0.986071800731760    0.965363722277861    0.249827702687417  0.0000
  O3     O3        0.513167980500291    0.022185829387678    0.252868982993852  0.0000
  O2     O2        0.005253619837611    0.981734075562663    0.752304149887498  0.0000
  O3     O3        0.475299762981119    0.009003229712620    0.725700787032030  0.0000
  O3     O3        0.642888498905549    0.118638317119027    0.111550979164875  0.0000
  O2     O2        0.877903386164307    0.848258665918820    0.101398153358470  0.0000
  O3     O3        0.355199596190612    0.097606103165720    0.893608164160216  0.0000
  O3     O3        0.131212401759148    0.861777633648745    0.871597324518452  0.0000
  O3     O3        0.418372413747611    0.751704899889913    0.896348485806972  0.0000
  O2     O2        0.087217958391157    0.194383477348535    0.898387132659217  0.0000
  O3     O3        0.595119151375964    0.766147641851128    0.108636510396750  0.0000
  O2     O2        0.920966524715368    0.184701245089416    0.086409262105426  0.0000
  O1     O1        0.505528819473061    0.045040373740239    0.987361518584268  0.0000
  O2     O2        0.012208544038267    0.925874566399794    0.003009734782777  0.0000
  O2     O2        0.142601642748611    0.520943147233443    0.291792739063266  0.0000
  O2     O2        0.369746796123857    0.453377894153396    0.300681802654173  0.0000
  O2     O2        0.859772463579613    0.510019606322344    0.682572080441513  0.0000
  O2     O2        0.635363202495334    0.466608118952410    0.702657556688298  0.0000
  O2     O2        0.242884427928131    0.254115141017538    0.315450686698842  0.0000
  O2     O2        0.268795797440708    0.718478840505659    0.314579273895160  0.0000
  O2     O2        0.756103088811279    0.250551232766759    0.681368282639083  0.0000
  O2     O2        0.738131751591435    0.727236588021758    0.686705968940497  0.0000
  O2     O2        0.129737500112106    0.251691674614857    0.136636833757245  0.0000
  O2     O2        0.367437879130092    0.700370912323449    0.123628952347842  0.0000
  O2     O2        0.869280138634431    0.264103686128890    0.858193419875243  0.0000
  O2     O2        0.635911974779958    0.717799836337727    0.875987186808996  0.0000
  O2     O2        0.845134831934162    0.749510238430079    0.866519916387440  0.0000
  O2     O2        0.659656041923104    0.206793408446068    0.870117941209480  0.0000
  O3     O3        0.165747316567949    0.786514110879845    0.134417983313245  0.0000
  O2     O2        0.342665156807004    0.198019320428655    0.131470327370425  0.0000
  O2     O2        0.639238168325980    0.451407631522062    0.040983616567909  0.0000
  O2     O2        0.876604073767032    0.509688125879331    0.038904704948850  0.0000
  O2     O2        0.371326794338501    0.434826677901476    0.957588323367963  0.0000
  O3     O3        0.121551350592883    0.514463131781233    0.968796454088569  0.0000
  O2     O2        0.770666872598769    0.261223989151886    0.045715434171252  0.0000
  O2     O2        0.745348984411491    0.701155645486780    0.053645683897658  0.0000
  O2     O2        0.233897086944104    0.283119403012153    0.958268474662744  0.0000
  O3     O3        0.267351590312810    0.692836842680023    0.932627430720890  0.0000
