data_c00226.vasp
_audit_creation_method             Generated by GULP
_audit_author_name                 Salvador R. G. Balestra
_symmetry_space_group_name_H-M     'P 1             '
_symmetry_Int_Tables_number        1

loop_
_symmetry_equiv_pos_site_id
_symmetry_equiv_pos_as_xyz
_cell_length_a                       17.1240
_cell_length_b                        7.6025
_cell_length_c                       10.3554
_cell_angle_alpha                   90.1278
_cell_angle_beta                    90.0257
_cell_angle_gamma                   89.7642

loop_
_atom_site_label
_atom_site_type_symbol
_atom_site_fract_x
_atom_site_fract_y
_atom_site_fract_z
_atom_site_charge
  Ge     Ge        0.052090000000021    0.000000000000000    0.372269999999958  0.0000
  Ge     Ge        0.557591423794364    0.020983555101423    0.102022017992081  0.0000
  Ge     Ge        0.337828602648073    0.735006660373685    0.278575506484118  0.0000
  Ge     Ge        0.851541984430258    0.688993678273166    0.707023412914412  0.0000
  Si     Si        0.457027051323547    0.014971415926362    0.362187569422729  0.0000
  Si     Si        0.955731383340028    0.998886451855363    0.635969394399263  0.0000
  Si     Si        0.551365954677267    0.018483656737956    0.621270214797753  0.0000
  Si     Si        0.944176348031105    0.007027995749845    0.123455170464906  0.0000
  Si     Si        0.443504622649595    0.014783590922026    0.860240821315861  0.0000
  Si     Si        0.058633422909505    0.007829696754392    0.890499341391804  0.0000
  Si     Si        0.175279907625706    0.281523382970377    0.272283778260255  0.0000
  Si     Si        0.834290767446583    0.279698590790270    0.718773363277607  0.0000
  Si     Si        0.668897708170082    0.727740875240601    0.713019673138066  0.0000
  Si     Si        0.654714237230259    0.321338524433435    0.723214779428178  0.0000
  Si     Si        0.154931582942922    0.687589095776719    0.281059157607671  0.0000
  Si     Si        0.355623490844951    0.322679292454806    0.270285218520109  0.0000
  Si     Si        0.653448945889965    0.341463096861528    0.022897155897915  0.0000
  Si     Si        0.855890330352161    0.690507494901529    0.015239297511284  0.0000
  Si     Si        0.352114787548478    0.330428060040703    0.969601086463495  0.0000
  Si     Si        0.154663173095539    0.692624354812752    0.979444534340359  0.0000
  Si     Si        0.335376157796365    0.733113085147907    0.971497387222473  0.0000
  Si     Si        0.171601098393797    0.292948073519847    0.972131199671567  0.0000
  Si     Si        0.676284305427838    0.738288027783902    0.014724406096629  0.0000
  Si     Si        0.833384451030819    0.294593512994982    0.021538781511017  0.0000
  O3     O3        0.128329935731626    0.145765819586280    0.356179017069227  0.0000
  O3     O3        0.390456690977770    0.869762832136567    0.378641164308621  0.0000
  O2     O2        0.880716919322415    0.129189337232692    0.641984646322576  0.0000
  O2     O2        0.610761227196852    0.855294004978809    0.635792226967441  0.0000
  O3     O3        0.919329964247534    0.806205092703451    0.619866900130479  0.0000
  O2     O2        0.595463743832736    0.202893071690712    0.641569633533713  0.0000
  O3     O3        0.090517678373919    0.789976767345923    0.362544321712638  0.0000
  O2     O2        0.415857768352093    0.205799805920711    0.351668531585770  0.0000
  O3     O3        0.013393054772196    0.042474052521416    0.521542813067302  0.0000
  O2     O2        0.519104463349225    0.016366948579836    0.476818309154691  0.0000
  O3     O3        0.976856397079191    0.029294535372848    0.265316763994321  0.0000
  O3     O3        0.501939398428056    0.967780449866513    0.231365678736091  0.0000
  O2     O2        0.004671430570033    0.020749882853185    0.767083610107834  0.0000
  O2     O2        0.477652715617452    0.002753780525016    0.716469335123344  0.0000
  O3     O3        0.593078149846213    0.233939873979844    0.108083468192914  0.0000
  O2     O2        0.912808775171949    0.808644489635788    0.103088272906086  0.0000
  O2     O2        0.409125644319843    0.211565793390853    0.882760801845790  0.0000
  O2     O2        0.096880914679071    0.813045540662079    0.895268949684117  0.0000
  O2     O2        0.375581403915638    0.869176960868508    0.874271171028362  0.0000
  O2     O2        0.126350112810767    0.155300457596899    0.881880704111428  0.0000
  O3     O3        0.637815165298834    0.882218945244593    0.103246367157862  0.0000
  O2     O2        0.874401149867095    0.148095657305529    0.108445504718269  0.0000
  O3     O3        0.510246908292642    0.970266427548691    0.961127525393062  0.0000
  O2     O2        0.011063114499978    0.050117022642240    0.020009338174966  0.0000
  O2     O2        0.146163453628559    0.479216941470060    0.302350599069465  0.0000
  O3     O3        0.370615195820202    0.522883027922892    0.302073589294998  0.0000
  O3     O3        0.867493059056565    0.468079030744904    0.680661940939509  0.0000
  O2     O2        0.639458487726328    0.526874385372168    0.694953369367061  0.0000
  O2     O2        0.267129112275268    0.267490458778692    0.304893344040264  0.0000
  O3     O3        0.240909845272004    0.749091271988669    0.320732040302149  0.0000
  O2     O2        0.742757289323564    0.270867204461323    0.681712582384615  0.0000
  O3     O3        0.756884493226097    0.741451424240902    0.662714000301378  0.0000
  O2     O2        0.162156503190054    0.237594552392835    0.121235851917374  0.0000
  O3     O3        0.349950628342512    0.791198344020163    0.118031726414050  0.0000
  O2     O2        0.842224887301971    0.245093523996900    0.871507916711240  0.0000
  O2     O2        0.668808396817883    0.784289381056207    0.863041002502950  0.0000
  O3     O3        0.869587791733261    0.738084783859152    0.867086312651216  0.0000
  O2     O2        0.640835861576678    0.280380217408614    0.874127368995399  0.0000
  O2     O2        0.141663492532121    0.735912176771285    0.130103887139799  0.0000
  O2     O2        0.370355371118813    0.282597084481782    0.118261555664171  0.0000
  O2     O2        0.636380364897336    0.548220852311947    0.039104417814703  0.0000
  O2     O2        0.873662035066733    0.484769974916345    0.043783342224563  0.0000
  O2     O2        0.369515936793298    0.536322950224536    0.947079123598108  0.0000
  O2     O2        0.136598851871309    0.488408906585741    0.949519623957520  0.0000
  O2     O2        0.742845168452675    0.300189544998373    0.062308297227029  0.0000
  O2     O2        0.766817870569505    0.729331119109413    0.053079720480825  0.0000
  O2     O2        0.262634106199841    0.288712935167453    0.934186360072068  0.0000
  O2     O2        0.243361936466139    0.734741140111780    0.941555475890319  0.0000
