data_c00234.vasp
_audit_creation_method             Generated by GULP
_audit_author_name                 Salvador R. G. Balestra
_symmetry_space_group_name_H-M     'P 1             '
_symmetry_Int_Tables_number        1

loop_
_symmetry_equiv_pos_site_id
_symmetry_equiv_pos_as_xyz
_cell_length_a                       17.1062
_cell_length_b                        7.6214
_cell_length_c                       10.3118
_cell_angle_alpha                   89.5524
_cell_angle_beta                    90.0315
_cell_angle_gamma                   90.2055

loop_
_atom_site_label
_atom_site_type_symbol
_atom_site_fract_x
_atom_site_fract_y
_atom_site_fract_z
_atom_site_charge
  Ge     Ge        0.052090000000021    0.000000000000000    0.372269999999958  0.0000
  Ge     Ge        0.558921135674009    0.019347535618653    0.107478325551880  0.0000
  Ge     Ge        0.336905303477759    0.741079957785832    0.282609568934793  0.0000
  Ge     Ge        0.172880386507572    0.296272908385432    0.968262698452061  0.0000
  Si     Si        0.455062635256480    0.023219131274788    0.365876769936849  0.0000
  Si     Si        0.949582316619804    0.012603714912399    0.634086839060426  0.0000
  Si     Si        0.551655697067186    0.028720233308072    0.623834113749832  0.0000
  Si     Si        0.948987939947083    0.017434669311116    0.117003730391706  0.0000
  Si     Si        0.445672687281610    0.026580682212891    0.866273389446583  0.0000
  Si     Si        0.059055610310583    0.013542234768452    0.881246319780720  0.0000
  Si     Si        0.174994645120081    0.283370304381068    0.273893693085202  0.0000
  Si     Si        0.835343384454349    0.304941054922785    0.712789582105251  0.0000
  Si     Si        0.666170143330617    0.736611654209599    0.721227191178309  0.0000
  Si     Si        0.845508109845049    0.705864992146675    0.707925008914883  0.0000
  Si     Si        0.655375182495972    0.331066868476785    0.723251440008039  0.0000
  Si     Si        0.153898873745313    0.690923719734347    0.277900311364776  0.0000
  Si     Si        0.354429860875242    0.333131263032038    0.276010667182892  0.0000
  Si     Si        0.657138024664478    0.339160492618036    0.024215603521968  0.0000
  Si     Si        0.855556861433013    0.701764737988470    0.011498859384363  0.0000
  Si     Si        0.355553483184090    0.344240532225372    0.971075966233751  0.0000
  Si     Si        0.153808818000318    0.700556546930827    0.977738755852605  0.0000
  Si     Si        0.335847312692059    0.742782949704944    0.974052410319782  0.0000
  Si     Si        0.676122264791314    0.738476596755509    0.022546339949836  0.0000
  Si     Si        0.837672880915550    0.305598725577470    0.016266307661199  0.0000
  O3     O3        0.126346526040982    0.153314541700281    0.363279687615584  0.0000
  O3     O3        0.387490183985297    0.879338290735714    0.383300521558873  0.0000
  O2     O2        0.886668049751769    0.170763853846557    0.630017267440023  0.0000
  O2     O2        0.611189564496785    0.866735224095647    0.640156225470735  0.0000
  O2     O2        0.902223365371607    0.828815827124837    0.622213006281241  0.0000
  O2     O2        0.596697075656423    0.213073077719231    0.640059238191689  0.0000
  O3     O3        0.090373732806952    0.791254403507390    0.361788214489920  0.0000
  O2     O2        0.415314462488412    0.214298938104407    0.355035352865194  0.0000
  O3     O3        0.011418075667735    0.031131577207877    0.522034836210381  0.0000
  O2     O2        0.518279920992070    0.022944325005314    0.479577185542721  0.0000
  O3     O3        0.978338216699966    0.030749659748661    0.261815234049660  0.0000
  O3     O3        0.498916719915070    0.974782615286808    0.234210488775807  0.0000
  O2     O2        0.996228536264371    0.017649689350974    0.768716622615300  0.0000
  O2     O2        0.478421867421597    0.015818002571683    0.720875065578499  0.0000
  O3     O3        0.598366452222340    0.228726581550598    0.111772224630996  0.0000
  O2     O2        0.916573512373520    0.821762789000865    0.088556749864859  0.0000
  O2     O2        0.417806874170752    0.225920442933597    0.894378051376337  0.0000
  O2     O2        0.098977925806174    0.822076981512301    0.888773586286751  0.0000
  O2     O2        0.374033670163301    0.888276003677116    0.879620185120326  0.0000
  O3     O3        0.125869406237039    0.158278458141739    0.862747235696034  0.0000
  O3     O3        0.635960577348773    0.873300351456181    0.115337057381822  0.0000
  O2     O2        0.880950357128531    0.160760673693261    0.101386314824624  0.0000
  O3     O3        0.512172958725518    0.970652056911440    0.965165189151742  0.0000
  O2     O2        0.018933764710877    0.063649509106538    0.018168423819464  0.0000
  O2     O2        0.142444990811707    0.481490471666276    0.285904887462191  0.0000
  O3     O3        0.373008104167124    0.532193629709736    0.305886874761143  0.0000
  O2     O2        0.862363708347672    0.502678185139179    0.676216601464755  0.0000
  O2     O2        0.637945594661500    0.536504446044033    0.698385203879314  0.0000
  O2     O2        0.265909841572359    0.282871826508247    0.316984457294171  0.0000
  O3     O3        0.239773040065431    0.744276775429476    0.325413673596975  0.0000
  O2     O2        0.743616936417266    0.284349692952253    0.680321211374557  0.0000
  O2     O2        0.755925501786566    0.754139688541972    0.674239502935107  0.0000
  O3     O3        0.168263469100093    0.221329787966400    0.126182171335065  0.0000
  O3     O3        0.346850128315022    0.801629727217877    0.121554091415743  0.0000
  O2     O2        0.847753283077320    0.264088220271107    0.864566434870831  0.0000
  O2     O2        0.662131811314578    0.789237545042467    0.871658099690892  0.0000
  O2     O2        0.863497435819112    0.741156468589759    0.858687204549811  0.0000
  O2     O2        0.642027147783558    0.284807874323835    0.874454314614712  0.0000
  O2     O2        0.143098364288662    0.753924085020086    0.128245621145025  0.0000
  O2     O2        0.363536584544317    0.294531531111787    0.122812623053337  0.0000
  O2     O2        0.641018193325106    0.543893228775516    0.046235180031848  0.0000
  O2     O2        0.874234630522907    0.498178964659854    0.043469845947333  0.0000
  O2     O2        0.375053132051207    0.551374661260784    0.952061572903808  0.0000
  O3     O3        0.130901715348822    0.501282475157462    0.955080253108524  0.0000
  O2     O2        0.747281131567469    0.298042445741382    0.057495322114377  0.0000
  O2     O2        0.767904177303028    0.742891354830279    0.055815332145507  0.0000
  O3     O3        0.269422580355673    0.305204524790203    0.920821996883777  0.0000
  O2     O2        0.244373036747596    0.729388598911613    0.939449103861187  0.0000
