data_c00204.vasp
_audit_creation_method             Generated by GULP
_audit_author_name                 Salvador R. G. Balestra
_symmetry_space_group_name_H-M     'P 1             '
_symmetry_Int_Tables_number        1

loop_
_symmetry_equiv_pos_site_id
_symmetry_equiv_pos_as_xyz
_cell_length_a                       17.1431
_cell_length_b                        7.6092
_cell_length_c                       10.2842
_cell_angle_alpha                   90.8949
_cell_angle_beta                    90.0412
_cell_angle_gamma                   90.1692

loop_
_atom_site_label
_atom_site_type_symbol
_atom_site_fract_x
_atom_site_fract_y
_atom_site_fract_z
_atom_site_charge
  Ge     Ge        0.052090000000021    0.000000000000000    0.372269999999958  0.0000
  Ge     Ge        0.561487078488890    0.018590343365516    0.152490237947617  0.0000
  Ge     Ge        0.062036823270704    0.989039300198929    0.875017220439863  0.0000
  Ge     Ge        0.667750535996330    0.722504017983555    0.733346593847991  0.0000
  Si     Si        0.451607282011519    0.021537121924415    0.399160998611020  0.0000
  Si     Si        0.952153493105393    0.988836371885308    0.631054061635010  0.0000
  Si     Si        0.548477925851258    0.003966643641732    0.654455580224394  0.0000
  Si     Si        0.948301556185887    0.010388151449578    0.113359884199839  0.0000
  Si     Si        0.448129347209600    0.999827516975415    0.910087216559224  0.0000
  Si     Si        0.173031181517885    0.282407938149225    0.295626446665099  0.0000
  Si     Si        0.336901176858433    0.728543191140855    0.294802395190387  0.0000
  Si     Si        0.835564607868826    0.279841206312341    0.736768140616621  0.0000
  Si     Si        0.851227036006604    0.682712904785526    0.729566730346259  0.0000
  Si     Si        0.656234577510318    0.307065890872384    0.738631547585012  0.0000
  Si     Si        0.157823929673713    0.689757796811664    0.293666357463843  0.0000
  Si     Si        0.353316939844329    0.326950085007223    0.298094832279572  0.0000
  Si     Si        0.655397322059047    0.332476814707510    0.040368940897126  0.0000
  Si     Si        0.854265039180114    0.688644851981631    0.034801932281177  0.0000
  Si     Si        0.356117709146750    0.320931250190990    0.996056907230777  0.0000
  Si     Si        0.155116958858625    0.675739453696389    0.992411544371699  0.0000
  Si     Si        0.334991594023222    0.716373154814079    0.989725786292160  0.0000
  Si     Si        0.175138030260760    0.273066909036427    0.995877952209972  0.0000
  Si     Si        0.674156093439827    0.736512756305798    0.038813878487496  0.0000
  Si     Si        0.834205258618754    0.294684967338821    0.042634234443469  0.0000
  O3     O3        0.123748981056592    0.160856016327548    0.388795203487303  0.0000
  O2     O2        0.387756016779346    0.868933376322003    0.374813673746430  0.0000
  O2     O2        0.888179329651398    0.138167758065725    0.662446555647574  0.0000
  O3     O3        0.609587574049855    0.847340667972038    0.635052592242063  0.0000
  O2     O2        0.914037263095944    0.796232600955415    0.650633581834348  0.0000
  O2     O2        0.597413628250498    0.185494109342040    0.655814295246793  0.0000
  O3     O3        0.098001993224941    0.798468419993211    0.380426958341565  0.0000
  O2     O2        0.411542950343716    0.211833997322798    0.383373865790175  0.0000
  O3     O3        0.978445582302762    0.011281432834064    0.483833068501433  0.0000
  O2     O2        0.482438053867452    0.008066719952086    0.545364982787147  0.0000
  O3     O3        0.010367054698264    0.037607689158739    0.223922168547731  0.0000
  O3     O3        0.525538688755249    0.002174958860843    0.306840633200479  0.0000
  O3     O3        0.029826304186243    0.005380484055844    0.717341591099649  0.0000
  O2     O2        0.505015959863138    0.973274742830973    0.790113882963665  0.0000
  O3     O3        0.595771689785228    0.229634185030917    0.128969476145274  0.0000
  O2     O2        0.912815414451164    0.812250096174015    0.117103686253029  0.0000
  O2     O2        0.413734994834315    0.198236156428889    0.911685859087566  0.0000
  O3     O3        0.095930237758310    0.778822625803434    0.903450053140168  0.0000
  O2     O2        0.377657377101271    0.857964542191551    0.900728920492123  0.0000
  O3     O3        0.137533898669809    0.136854903667565    0.897160629072070  0.0000
  O3     O3        0.636467330713086    0.868428189835576    0.140528333214756  0.0000
  O2     O2        0.878346021709694    0.152204114269994    0.128262675263422  0.0000
  O3     O3        0.491846407933033    0.956989198601434    0.042044136069465  0.0000
  O3     O3        0.986485090705032    0.046185049642485    0.974593301563736  0.0000
  O2     O2        0.145700005481598    0.483364871510441    0.315322047248410  0.0000
  O2     O2        0.366159102329782    0.533035322388141    0.330179067837094  0.0000
  O2     O2        0.864544251864629    0.475289648367381    0.700039429307120  0.0000
  O3     O3        0.638420464576501    0.507492288828934    0.712099763497150  0.0000
  O2     O2        0.264854417715631    0.270428995559414    0.328186991991161  0.0000
  O2     O2        0.246048529878470    0.747297134239365    0.332060452122681  0.0000
  O2     O2        0.744954131316174    0.258403043373211    0.696177532742361  0.0000
  O3     O3        0.764875493466326    0.736605221975824    0.689650566012120  0.0000
  O2     O2        0.159941417358501    0.219076317828258    0.145604406505660  0.0000
  O2     O2        0.346690996206641    0.762860263302822    0.141911032992792  0.0000
  O2     O2        0.842107594190560    0.249047550551201    0.890162459514350  0.0000
  O3     O3        0.659760074506558    0.797351691494656    0.892015516798232  0.0000
  O2     O2        0.866943036190222    0.721852993768543    0.881990289180640  0.0000
  O2     O2        0.644419500065669    0.266078529444645    0.891344021609332  0.0000
  O2     O2        0.141630485651931    0.736067908627968    0.142575321786937  0.0000
  O2     O2        0.374779644736533    0.287890516415573    0.147658292406182  0.0000
  O2     O2        0.638688840324540    0.539922020083729    0.050691895225694  0.0000
  O2     O2        0.872037040623773    0.486974218778025    0.070252054309768  0.0000
  O2     O2        0.371360957794068    0.523569216013590    0.960264288980684  0.0000
  O2     O2        0.140298366603467    0.467680773324224    0.974842489656055  0.0000
  O2     O2        0.743976442659849    0.292865175032477    0.084786801623588  0.0000
  O2     O2        0.765883868458108    0.733492599794331    0.070609252691006  0.0000
  O2     O2        0.267124078826827    0.272131396542617    0.966766569549253  0.0000
  O2     O2        0.244060899622371    0.720101003256377    0.952907217261084  0.0000
