data_c00294.vasp
_audit_creation_method             Generated by GULP
_audit_author_name                 Salvador R. G. Balestra
_symmetry_space_group_name_H-M     'P 1             '
_symmetry_Int_Tables_number        1

loop_
_symmetry_equiv_pos_site_id
_symmetry_equiv_pos_as_xyz
_cell_length_a                       17.2108
_cell_length_b                        7.6146
_cell_length_c                       10.2749
_cell_angle_alpha                   89.5155
_cell_angle_beta                    90.8672
_cell_angle_gamma                   89.5420

loop_
_atom_site_label
_atom_site_type_symbol
_atom_site_fract_x
_atom_site_fract_y
_atom_site_fract_z
_atom_site_charge
  Ge     Ge        0.052090000000021    0.000000000000000    0.372269999999958  0.0000
  Ge     Ge        0.946827659973990    0.994299810889411    0.102852055823365  0.0000
  Ge     Ge        0.172829545818912    0.284571274271066    0.287006397431191  0.0000
  Ge     Ge        0.652409814435104    0.331454447254205    0.711039628812491  0.0000
  Si     Si        0.456425510373491    0.008702259689787    0.367628084789896  0.0000
  Si     Si        0.949639078805759    0.000882634338330    0.626115646247027  0.0000
  Si     Si        0.548112343163444    0.024537067186998    0.632359344049117  0.0000
  Si     Si        0.558977456292727    0.008918870398162    0.120094054561743  0.0000
  Si     Si        0.443259551851383    0.008977799644287    0.882484227193912  0.0000
  Si     Si        0.058681887995317    0.008106398863656    0.863712046688905  0.0000
  Si     Si        0.340282080161448    0.723388386369102    0.275397310392659  0.0000
  Si     Si        0.833691873093899    0.293375510618280    0.720602817521670  0.0000
  Si     Si        0.668510455352161    0.740471844488852    0.723565966906831  0.0000
  Si     Si        0.846991889423973    0.698807392230897    0.731279961716820  0.0000
  Si     Si        0.159885243707852    0.698278853436770    0.283044986886717  0.0000
  Si     Si        0.354440575923813    0.320210919093851    0.281026143120639  0.0000
  Si     Si        0.648525322635863    0.325722522102969    0.021705944024973  0.0000
  Si     Si        0.848681400811403    0.675647708185045    0.033936751840944  0.0000
  Si     Si        0.346650337842259    0.322270486150884    0.975017497580503  0.0000
  Si     Si        0.154527372327242    0.697272542564240    0.981653058566317  0.0000
  Si     Si        0.334141095832559    0.720792402184094    0.971673341725735  0.0000
  Si     Si        0.167459449453657    0.290878319887954    0.978897214160091  0.0000
  Si     Si        0.669914446111399    0.721249895954976    0.028710239410085  0.0000
  Si     Si        0.826773990315651    0.279959321459223    0.025349962356258  0.0000
  O1     O1        0.120114478625185    0.160996213439188    0.390456788584458  0.0000
  O2     O2        0.389822952385044    0.862048575394418    0.356641390767290  0.0000
  O2     O2        0.892272619652996    0.166109196069204    0.646046182568943  0.0000
  O2     O2        0.621879296031393    0.892957327164048    0.647399517179303  0.0000
  O2     O2        0.906233348861567    0.817586960970931    0.651601218348893  0.0000
  O3     O3        0.584011117904736    0.216521040508277    0.623271397781354  0.0000
  O3     O3        0.104055818421434    0.804919685146870    0.375101687965451  0.0000
  O2     O2        0.418405841857105    0.202866258799216    0.357900072548660  0.0000
  O3     O3        0.976743288046646    0.001954560487380    0.479016608916537  0.0000
  O2     O2        0.498774855435120    0.980575828932484    0.504700526880907  0.0000
  O1     O1        0.011698489952783    0.037893701970809    0.221075052278425  0.0000
  O2     O2        0.520269842697820    0.984208424080571    0.258254273206150  0.0000
  O2     O2        0.028185262360994    0.013129356528160    0.714382882762785  0.0000
  O2     O2        0.490325601998683    0.999826723521274    0.751497816045172  0.0000
  O2     O2        0.591442390957714    0.206386706943812    0.107278137086593  0.0000
  O3     O3        0.909356353935461    0.783826362808729    0.118265620316306  0.0000
  O2     O2        0.403116338683903    0.200682487290315    0.891449715388210  0.0000
  O2     O2        0.096774118001677    0.816322069725308    0.894029741213588  0.0000
  O2     O2        0.377447905565111    0.858935804400634    0.880244330333144  0.0000
  O2     O2        0.120811942661848    0.163817938621075    0.882110377010390  0.0000
  O2     O2        0.628311615955250    0.866363967440840    0.115305160771762  0.0000
  O3     O3        0.868000658431777    0.136220104709224    0.112817030688746  0.0000
  O2     O2        0.498233110368639    0.967805635396378    0.005545547548488  0.0000
  O3     O3        0.985863816864378    0.039388736238363    0.953145443057496  0.0000
  O3     O3        0.142161568750519    0.497367578941015    0.305028288717239  0.0000
  O2     O2        0.369934587141814    0.525953727332118    0.307826187860381  0.0000
  O2     O2        0.862913479172023    0.493889102865768    0.702323092041101  0.0000
  O3     O3        0.635771037068524    0.552482231818776    0.685505725460147  0.0000
  O3     O3        0.270094618698749    0.267723559116056    0.327819706672019  0.0000
  O2     O2        0.250253538705645    0.741922025929285    0.313903739631667  0.0000
  O3     O3        0.746349325434637    0.280091622693567    0.666363948137147  0.0000
  O2     O2        0.759366726099007    0.749640213181781    0.686518144328471  0.0000
  O3     O3        0.158785582291282    0.224355570933583    0.125679096810782  0.0000
  O2     O2        0.348941574116349    0.766007311832483    0.122671355471903  0.0000
  O2     O2        0.832252071345980    0.238015685901561    0.872029516291457  0.0000
  O2     O2        0.661678113638716    0.773431645712115    0.877498361647993  0.0000
  O2     O2        0.859811980989453    0.736905184695180    0.883867918383520  0.0000
  O3     O3        0.635896654129283    0.278760255606337    0.871921213934192  0.0000
  O2     O2        0.141488412126243    0.751550814975787    0.131471716738609  0.0000
  O2     O2        0.360666752078028    0.281454796418719    0.127285446791621  0.0000
  O2     O2        0.630308510467185    0.530905798738584    0.048997210059769  0.0000
  O2     O2        0.866194938501318    0.469287906691503    0.051602370556830  0.0000
  O2     O2        0.365641487542056    0.524886391991775    0.942289981717444  0.0000
  O2     O2        0.135325441746161    0.491402126642580    0.964001175238565  0.0000
  O2     O2        0.736985468970103    0.286296438592380    0.064481000902857  0.0000
  O2     O2        0.759851498089326    0.715779890563409    0.073179345171690  0.0000
  O2     O2        0.257437242732121    0.283640543566571    0.938259507700359  0.0000
  O2     O2        0.242560235886047    0.733581361472398    0.939664041014873  0.0000
