data_c00274.vasp
_audit_creation_method             Generated by GULP
_audit_author_name                 Salvador R. G. Balestra
_symmetry_space_group_name_H-M     'P 1             '
_symmetry_Int_Tables_number        1

loop_
_symmetry_equiv_pos_site_id
_symmetry_equiv_pos_as_xyz
_cell_length_a                       16.9672
_cell_length_b                        7.5498
_cell_length_c                       10.5118
_cell_angle_alpha                   91.4309
_cell_angle_beta                    90.0352
_cell_angle_gamma                   89.4337

loop_
_atom_site_label
_atom_site_type_symbol
_atom_site_fract_x
_atom_site_fract_y
_atom_site_fract_z
_atom_site_charge
  Ge     Ge        0.052090000000021    0.000000000000000    0.372269999999958  0.0000
  Ge     Ge        0.943701993681394    0.980487531110594    0.115436879836744  0.0000
  Ge     Ge        0.444271563313501    0.944065818419955    0.860615742313978  0.0000
  Ge     Ge        0.154190814148802    0.313275451125549    0.282500832918064  0.0000
  Si     Si        0.460647461287448    0.968926049114310    0.347509536509082  0.0000
  Si     Si        0.955631617977017    0.963622419491846    0.630492472587536  0.0000
  Si     Si        0.552258560899356    0.954752507178954    0.609711752994270  0.0000
  Si     Si        0.558172516828003    0.974671455958010    0.096934442036313  0.0000
  Si     Si        0.058433212896760    0.960886899225761    0.881596115584290  0.0000
  Si     Si        0.359508415552067    0.657813714840397    0.251096181297710  0.0000
  Si     Si        0.851925753403873    0.277756226562277    0.708153747629916  0.0000
  Si     Si        0.653380187452986    0.646788641464366    0.700681180543607  0.0000
  Si     Si        0.835184023765513    0.686049051918923    0.708422313632610  0.0000
  Si     Si        0.671179756528779    0.240210021411192    0.703184784358469  0.0000
  Si     Si        0.178925647797135    0.722357197641129    0.259830426593948  0.0000
  Si     Si        0.340016026173519    0.252590091970510    0.267930736143364  0.0000
  Si     Si        0.671448127965659    0.250886896589982    0.000279106909368  0.0000
  Si     Si        0.828760742553669    0.700218556298769    0.003167421669012  0.0000
  Si     Si        0.329109631234271    0.223829119085713    0.973036866690541  0.0000
  Si     Si        0.174344517682668    0.681578034654194    0.962673203982966  0.0000
  Si     Si        0.355378489518514    0.622312466814886    0.956295518979337  0.0000
  Si     Si        0.146041444170747    0.285034264286792    0.982543233629008  0.0000
  Si     Si        0.646781416718618    0.649138764774397    0.995700164802502  0.0000
  Si     Si        0.852827342506819    0.299368979669633    0.004108000075473  0.0000
  O1     O1        0.087181140910754    0.211708845088877    0.376275237935456  0.0000
  O2     O2        0.420662850128804    0.777176845359737    0.330545855892358  0.0000
  O2     O2        0.913492408309169    0.157803698098214    0.626300548911406  0.0000
  O2     O2        0.593641203829097    0.760912167774889    0.616444772626104  0.0000
  O2     O2        0.887184928836268    0.815444087282482    0.624558693474319  0.0000
  O2     O2        0.620094431737247    0.102564670591848    0.621178870191647  0.0000
  O3     O3        0.137448070384278    0.882091323293034    0.333795419715341  0.0000
  O2     O2        0.394057262942483    0.123284905954677    0.351447396028909  0.0000
  O3     O3        0.014803802752198    0.937208358108725    0.515772735330043  0.0000
  O2     O2        0.509032712040254    0.973748779108550    0.476745386208863  0.0000
  O1     O1        0.977408779676280    0.964709851674784    0.265930915827380  0.0000
  O2     O2        0.521786570765891    0.002764804255599    0.235230676095976  0.0000
  O2     O2        0.006300546039423    0.941893226637180    0.757208681902311  0.0000
  O3     O3        0.487152795653743    0.981961350321410    0.717701586925853  0.0000
  O2     O2        0.631911607323868    0.107188058999956    0.087877834580401  0.0000
  O3     O3        0.862786153769610    0.844472324472834    0.097624875979884  0.0000
  O3     O3        0.360024908186593    0.074534252884898    0.877908967248819  0.0000
  O2     O2        0.131633115457710    0.821265326315966    0.871987623986163  0.0000
  O3     O3        0.415157074030398    0.725258570722410    0.868798914402339  0.0000
  O2     O2        0.088739470889346    0.163253520266544    0.895751463864666  0.0000
  O2     O2        0.586607273046816    0.769926150579539    0.077852046653246  0.0000
  O3     O3        0.913502734677420    0.196666577877399    0.089873512580759  0.0000
  O3     O3        0.499343403241256    0.024228538396454    0.985887171243029  0.0000
  O3     O3        0.011227936052758    0.905862197094790    0.005298036481873  0.0000
  O3     O3        0.140715364605043    0.538551868861758    0.299463004156962  0.0000
  O2     O2        0.373752015881618    0.452096031488145    0.281054337983550  0.0000
  O2     O2        0.865125552191273    0.484602464050090    0.681693023938712  0.0000
  O2     O2        0.641437500338818    0.438490300420571    0.672376751937104  0.0000
  O3     O3        0.250661807416932    0.253964434616945    0.315418578361557  0.0000
  O2     O2        0.271601173610263    0.714673301910915    0.293504769792012  0.0000
  O2     O2        0.763425950092667    0.222267076996552    0.667828226338333  0.0000
  O2     O2        0.743153882283396    0.700794473341768    0.670759726594157  0.0000
  O3     O3        0.127748216118431    0.246954483565882    0.128557711563649  0.0000
  O2     O2        0.371531182924681    0.691323271900393    0.101405866081605  0.0000
  O2     O2        0.866727249161513    0.240785277536544    0.856529995553287  0.0000
  O2     O2        0.630890381041147    0.691274715699229    0.847562199919366  0.0000
  O2     O2        0.844368801471902    0.745893191651473    0.855752896243402  0.0000
  O2     O2        0.660816493273257    0.198056396614835    0.851610291970901  0.0000
  O2     O2        0.169155632890590    0.749397781128298    0.108769290376206  0.0000
  O2     O2        0.343710256663247    0.182006604301600    0.121553377840432  0.0000
  O2     O2        0.630931586892762    0.443962011102732    0.024220884708748  0.0000
  O2     O2        0.867560888896839    0.507699440041774    0.026953946032000  0.0000
  O2     O2        0.369834355642792    0.412001003366097    0.942836741153711  0.0000
  O2     O2        0.131364234420104    0.491152962676459    0.950578619464399  0.0000
  O2     O2        0.762798246452709    0.254720245680679    0.038889664422169  0.0000
  O2     O2        0.735878435588916    0.694763492752783    0.030135279694130  0.0000
  O2     O2        0.236023496688435    0.238367766569778    0.951354028400496  0.0000
  O2     O2        0.264982917866849    0.666395939706976    0.918985799894550  0.0000
