data_c00229.vasp
_audit_creation_method             Generated by GULP
_audit_author_name                 Salvador R. G. Balestra
_symmetry_space_group_name_H-M     'P 1             '
_symmetry_Int_Tables_number        1

loop_
_symmetry_equiv_pos_site_id
_symmetry_equiv_pos_as_xyz
_cell_length_a                       17.0630
_cell_length_b                        7.5819
_cell_length_c                       10.4012
_cell_angle_alpha                   90.0521
_cell_angle_beta                    89.7399
_cell_angle_gamma                   89.7140

loop_
_atom_site_label
_atom_site_type_symbol
_atom_site_fract_x
_atom_site_fract_y
_atom_site_fract_z
_atom_site_charge
  Ge     Ge        0.052090000000021    0.000000000000000    0.372269999999958  0.0000
  Ge     Ge        0.556230538804614    0.035200641448247    0.112790710627223  0.0000
  Ge     Ge        0.338626343697436    0.737377815937793    0.281602882717509  0.0000
  Ge     Ge        0.651245747881400    0.363542632145724    0.028701626825413  0.0000
  Si     Si        0.457896876540829    0.014399594834487    0.369860974478099  0.0000
  Si     Si        0.956109933146659    0.010984642851853    0.640253768822799  0.0000
  Si     Si        0.556224722123396    0.030374389628684    0.624969820159103  0.0000
  Si     Si        0.947460058250799    0.018488357414653    0.120764064393142  0.0000
  Si     Si        0.448098758600639    0.018240327291960    0.867071904388290  0.0000
  Si     Si        0.062791464750626    0.012376796873714    0.889306470303063  0.0000
  Si     Si        0.176772052079184    0.280060195603561    0.272404967390367  0.0000
  Si     Si        0.836371680914161    0.300242211396033    0.722535320352277  0.0000
  Si     Si        0.673455780921637    0.743299129134652    0.717743952170952  0.0000
  Si     Si        0.853034385223268    0.703279265153799    0.715116599780502  0.0000
  Si     Si        0.657131343413208    0.335977584368371    0.723738185064990  0.0000
  Si     Si        0.155164868898572    0.687278496802725    0.281613176502225  0.0000
  Si     Si        0.357728835160590    0.323685778767278    0.272067085266127  0.0000
  Si     Si        0.857084171135067    0.702095333382270    0.014558409391044  0.0000
  Si     Si        0.356615865656800    0.335218090641661    0.973360754725498  0.0000
  Si     Si        0.156998570098555    0.695172015020828    0.981686882273297  0.0000
  Si     Si        0.338493809571009    0.738826034916443    0.976190908363284  0.0000
  Si     Si        0.175474605221046    0.294966455943838    0.973667540861596  0.0000
  Si     Si        0.677065150371074    0.765039631294259    0.017348042650177  0.0000
  Si     Si        0.834614249864839    0.308390105151585    0.024459151550149  0.0000
  O3     O3        0.129787903503279    0.143813757142866    0.356533890901089  0.0000
  O3     O3        0.390135809116020    0.870957864572438    0.384266937714036  0.0000
  O2     O2        0.888685868758005    0.160909860213185    0.644543442349800  0.0000
  O2     O2        0.620685201280216    0.874566582600711    0.633479207023282  0.0000
  O2     O2        0.913591096281941    0.820215801833278    0.632605693939138  0.0000
  O2     O2        0.597534969390552    0.219840604879883    0.639532110637926  0.0000
  O3     O3        0.089815617850409    0.788618527470160    0.362496317924988  0.0000
  O2     O2        0.418236909386331    0.206700661146288    0.352736896884927  0.0000
  O3     O3        0.011483884448518    0.037602393256790    0.520282660367092  0.0000
  O2     O2        0.518173738146040    0.021412841170349    0.485765358700513  0.0000
  O3     O3        0.979318921679361    0.036168270572826    0.262591424905598  0.0000
  O3     O3        0.506478715749730    0.960892955445048    0.243581302732849  0.0000
  O2     O2        0.009984640316878    0.027063668536197    0.765265325318103  0.0000
  O2     O2        0.486262149252741    0.004746555702091    0.726864342484274  0.0000
  O1     O1        0.582861138563644    0.251756039557149    0.116786459296877  0.0000
  O2     O2        0.914820614576313    0.821290330963810    0.098098770854919  0.0000
  O2     O2        0.414760041898140    0.217831517744937    0.886556724917698  0.0000
  O2     O2        0.099569449785931    0.815716980498114    0.896818296228298  0.0000
  O2     O2        0.378174923876487    0.875276924214812    0.878022014599296  0.0000
  O2     O2        0.132123089288491    0.157098982252905    0.881401459116653  0.0000
  O3     O3        0.645431990778571    0.923293542133014    0.100615608528767  0.0000
  O2     O2        0.878385298987695    0.161109805163663    0.106858886900941  0.0000
  O3     O3        0.509816304271550    0.969820394687976    0.974488780711907  0.0000
  O2     O2        0.014686678145342    0.060124735735830    0.017298710757151  0.0000
  O2     O2        0.146981718174554    0.478077460862661    0.301739954292305  0.0000
  O3     O3        0.372053140495411    0.524647310649649    0.303550619627921  0.0000
  O2     O2        0.868716493006620    0.496014060299676    0.691226955877033  0.0000
  O2     O2        0.641829514543335    0.544270007220447    0.700436557387705  0.0000
  O2     O2        0.268917494417615    0.266896989055249    0.305453711373074  0.0000
  O3     O3        0.241104368352289    0.749375585661248    0.322388008865006  0.0000
  O2     O2        0.745852029985704    0.287445016842011    0.679745736886509  0.0000
  O2     O2        0.764327625275038    0.751951478047491    0.673509618468949  0.0000
  O2     O2        0.165050031267654    0.236685754914622    0.121657811665715  0.0000
  O3     O3        0.351816572002911    0.797382958117797    0.122466665166065  0.0000
  O2     O2        0.838713546309834    0.258207003198562    0.873797991266416  0.0000
  O2     O2        0.668542456347637    0.804003435504052    0.865117033591145  0.0000
  O2     O2        0.867857565065270    0.749308659064670    0.864389455736185  0.0000
  O3     O3        0.641791990307036    0.291142960958165    0.871217571113907  0.0000
  O2     O2        0.142611603960716    0.737888805094490    0.131555121860110  0.0000
  O2     O2        0.374410050456824    0.283413023367693    0.121012727941063  0.0000
  O3     O3        0.631409728459702    0.584226345020964    0.046486261328632  0.0000
  O2     O2        0.877438534516557    0.497802905451440    0.042403703892132  0.0000
  O2     O2        0.374136221123512    0.542081036402674    0.953375762255236  0.0000
  O2     O2        0.139568652491858    0.490319112498431    0.951831104400111  0.0000
  O3     O3        0.746558486347851    0.318679549203740    0.073878018116887  0.0000
  O2     O2        0.767589990842631    0.735406269453013    0.054219740431219  0.0000
  O2     O2        0.267160212323896    0.293752338557681    0.937300392330712  0.0000
  O2     O2        0.246366299969951    0.737712007389189    0.945768943518858  0.0000
