data_c00293.vasp
_audit_creation_method             Generated by GULP
_audit_author_name                 Salvador R. G. Balestra
_symmetry_space_group_name_H-M     'P 1             '
_symmetry_Int_Tables_number        1

loop_
_symmetry_equiv_pos_site_id
_symmetry_equiv_pos_as_xyz
_cell_length_a                       17.1918
_cell_length_b                        7.6169
_cell_length_c                       10.3130
_cell_angle_alpha                   91.0374
_cell_angle_beta                    90.4419
_cell_angle_gamma                   89.5781

loop_
_atom_site_label
_atom_site_type_symbol
_atom_site_fract_x
_atom_site_fract_y
_atom_site_fract_z
_atom_site_charge
  Ge     Ge        0.052090000000021    0.000000000000000    0.372269999999958  0.0000
  Ge     Ge        0.939805739464945    0.976491922387170    0.119190930742690  0.0000
  Ge     Ge        0.156187694527741    0.308108949913905    0.272505000995240  0.0000
  Ge     Ge        0.832726207085555    0.681893467981299    0.698556592683544  0.0000
  Si     Si        0.455252420326645    0.971577683839153    0.345326680054207  0.0000
  Si     Si        0.952730349046980    0.964514010120766    0.627752598122410  0.0000
  Si     Si        0.546490536209730    0.956671152305268    0.612418805955091  0.0000
  Si     Si        0.556037484483734    0.967410449857067    0.095340239838892  0.0000
  Si     Si        0.440018883704056    0.960512308401944    0.860086838694815  0.0000
  Si     Si        0.054498224388401    0.968727165090038    0.881709037595997  0.0000
  Si     Si        0.352420997490538    0.664678060634810    0.250840972356960  0.0000
  Si     Si        0.843638455600398    0.267369311262579    0.700032346532500  0.0000
  Si     Si        0.650265790220983    0.648583907705405    0.693407378880454  0.0000
  Si     Si        0.664064951982320    0.244891653271814    0.696750650676360  0.0000
  Si     Si        0.173653609480064    0.715744540674862    0.256734896148695  0.0000
  Si     Si        0.338946323063406    0.263044216566372    0.260307152436485  0.0000
  Si     Si        0.665749873058497    0.253237942350029    0.000160111219129  0.0000
  Si     Si        0.827701288029194    0.690868762064070    0.003606889191496  0.0000
  Si     Si        0.330119415360027    0.249951070333875    0.956266069889791  0.0000
  Si     Si        0.168619703756379    0.684406624773445    0.953297368679341  0.0000
  Si     Si        0.347376632334595    0.647108411334778    0.948492082339126  0.0000
  Si     Si        0.150350927428897    0.285553123751964    0.964193507532618  0.0000
  Si     Si        0.649016361814109    0.649150156790252    0.998031474770867  0.0000
  Si     Si        0.844574635460996    0.287301705938879    0.000543159710890  0.0000
  O1     O1        0.089430593111860    0.207025695478908    0.365136305565543  0.0000
  O2     O2        0.411681660440157    0.786135368533338    0.330950136322739  0.0000
  O2     O2        0.901500552175283    0.143633471513688    0.616868129068058  0.0000
  O2     O2        0.587502287312491    0.765379866540400    0.616102902272763  0.0000
  O3     O3        0.893175548391422    0.805583575013563    0.606107752437597  0.0000
  O2     O2        0.612609683971990    0.105819224159233    0.616808926677174  0.0000
  O3     O3        0.131721497020211    0.869430290197718    0.333906306270282  0.0000
  O2     O2        0.393745631210888    0.131560755614962    0.339585001901446  0.0000
  O3     O3        0.021778854995791    0.959171344410759    0.527363817477864  0.0000
  O2     O2        0.498184140724865    0.977090472953724    0.481987672559869  0.0000
  O1     O1        0.972802672756407    0.968654114969556    0.274687274922408  0.0000
  O2     O2        0.519534214358861    0.991012217904914    0.235575106325654  0.0000
  O2     O2        0.990802326687225    0.949298627823370    0.770141382481323  0.0000
  O2     O2        0.486837612026976    0.982945374417582    0.729500739862263  0.0000
  O2     O2        0.623515743341594    0.111355132340171    0.086254574258746  0.0000
  O3     O3        0.868956910784803    0.818780524839319    0.104238588072280  0.0000
  O2     O2        0.370804535419545    0.104229582222975    0.865486394841509  0.0000
  O2     O2        0.121509752764701    0.819144584760983    0.863672398447991  0.0000
  O2     O2        0.404224046128936    0.764473555209642    0.862943645764624  0.0000
  O2     O2        0.092349644759831    0.163092995532713    0.879050140101113  0.0000
  O2     O2        0.590824830288820    0.771141383207958    0.080499998399652  0.0000
  O3     O3        0.902996591732817    0.184576916109583    0.091089280706960  0.0000
  O2     O2        0.493539206559688    0.002947249006106    0.983748308274481  0.0000
  O3     O3        0.015954625274432    0.929973112183535    0.018150132061988  0.0000
  O3     O3        0.138470604219074    0.529552105779727    0.292583825142219  0.0000
  O2     O2        0.370132628491594    0.461657907013478    0.280790065660726  0.0000
  O3     O3        0.862656714092870    0.467120167736253    0.675506194800819  0.0000
  O2     O2        0.635357979775547    0.441958038209235    0.665144229405142  0.0000
  O3     O3        0.251481854579355    0.254021017801952    0.310184825906963  0.0000
  O2     O2        0.265108839161168    0.713231225087341    0.293307543806192  0.0000
  O2     O2        0.754523921971305    0.224387042281865    0.657870138334323  0.0000
  O3     O3        0.736405353057822    0.697465532859991    0.651002857094266  0.0000
  O3     O3        0.137174150010469    0.243410750551417    0.113291807765467  0.0000
  O2     O2        0.362343598379283    0.700366554105135    0.098356276234298  0.0000
  O2     O2        0.855570829911347    0.222868714431118    0.851758491862129  0.0000
  O2     O2        0.639402508079994    0.690020403779504    0.846254267437348  0.0000
  O3     O3        0.839481797185051    0.754254169906516    0.857788936828052  0.0000
  O2     O2        0.655886851878102    0.204677394857710    0.848615723674669  0.0000
  O2     O2        0.163708831827939    0.745516108589931    0.102906668436324  0.0000
  O2     O2        0.341134430729385    0.209349996926140    0.108026529164971  0.0000
  O2     O2        0.629213412826623    0.446827513552752    0.026653809426106  0.0000
  O2     O2        0.862727997944167    0.493769196213911    0.012317692634104  0.0000
  O2     O2        0.365654873938692    0.440959742046004    0.924789532458326  0.0000
  O2     O2        0.131979837369750    0.490065698646805    0.936436092930797  0.0000
  O2     O2        0.755928317757481    0.250132683753535    0.041725037359680  0.0000
  O2     O2        0.736953191532754    0.689037893573835    0.040145903402100  0.0000
  O2     O2        0.238899003035961    0.245299113253123    0.923090647060265  0.0000
  O2     O2        0.258108064966914    0.684357589097435    0.908751156526962  0.0000
