data_c00262.vasp
_audit_creation_method             Generated by GULP
_audit_author_name                 Salvador R. G. Balestra
_symmetry_space_group_name_H-M     'P 1             '
_symmetry_Int_Tables_number        1

loop_
_symmetry_equiv_pos_site_id
_symmetry_equiv_pos_as_xyz
_cell_length_a                       16.9734
_cell_length_b                        7.5571
_cell_length_c                       10.4527
_cell_angle_alpha                   90.7991
_cell_angle_beta                    90.4248
_cell_angle_gamma                   89.3899

loop_
_atom_site_label
_atom_site_type_symbol
_atom_site_fract_x
_atom_site_fract_y
_atom_site_fract_z
_atom_site_charge
  Ge     Ge        0.052090000000021    0.000000000000000    0.372269999999958  0.0000
  Ge     Ge        0.559357072390766    0.042080924916265    0.139352253868781  0.0000
  Ge     Ge        0.648687252127656    0.361989159029896    0.034624905844511  0.0000
  Ge     Ge        0.679252352567875    0.772121622946687    0.021104670886692  0.0000
  Si     Si        0.455318145510214    0.009503747426939    0.386054436143005  0.0000
  Si     Si        0.954645867084448    0.987600651391872    0.637359954137452  0.0000
  Si     Si        0.552898260004236    0.009969026409775    0.643231248147310  0.0000
  Si     Si        0.950781892828384    0.009364357933862    0.110627917473515  0.0000
  Si     Si        0.451959708357745    0.996163496738356    0.894277935415919  0.0000
  Si     Si        0.064046687980579    0.999851563067816    0.880103104640269  0.0000
  Si     Si        0.174352858103735    0.277850003878041    0.281550601746805  0.0000
  Si     Si        0.339175876077751    0.724969014211479    0.285802762091546  0.0000
  Si     Si        0.833618080847943    0.278736108760343    0.731015541495997  0.0000
  Si     Si        0.673638155670637    0.730239655775798    0.720134389193248  0.0000
  Si     Si        0.853107930704972    0.680100412069625    0.720845180068803  0.0000
  Si     Si        0.654725460236295    0.319360998373604    0.733755740546674  0.0000
  Si     Si        0.157817356942831    0.687334725435500    0.284957316830374  0.0000
  Si     Si        0.356154306936662    0.318262472052617    0.284186971000410  0.0000
  Si     Si        0.860933425835164    0.685649639255197    0.021464220426308  0.0000
  Si     Si        0.357658000485778    0.317143333663907    0.988165952239171  0.0000
  Si     Si        0.156276062783183    0.684764630301262    0.988875623403579  0.0000
  Si     Si        0.338553549296001    0.718865281380274    0.987713707001090  0.0000
  Si     Si        0.174605602456258    0.280268857023394    0.985606345592228  0.0000
  Si     Si        0.832636176329141    0.295306003514691    0.031679823155202  0.0000
  O3     O3        0.127293779306070    0.153408128702578    0.373002287864172  0.0000
  O2     O2        0.388466039296354    0.859959370639582    0.373051103905089  0.0000
  O2     O2        0.885601056815446    0.131620079430453    0.659636611564948  0.0000
  O2     O2        0.619332397601970    0.855220350933521    0.630212265827991  0.0000
  O2     O2        0.915955356498363    0.792810569005740    0.642011049299769  0.0000
  O2     O2        0.593500438383614    0.202557985215361    0.649713089768977  0.0000
  O3     O3        0.096819956674469    0.793694148817246    0.371175038580155  0.0000
  O2     O2        0.416311897557374    0.203976713896266    0.368626766232982  0.0000
  O3     O3        0.992014386452420    0.020288202326350    0.501706943687140  0.0000
  O2     O2        0.494653778954272    0.000902677125825    0.523704994674360  0.0000
  O3     O3        0.994604812269396    0.043152513551538    0.241494427739329  0.0000
  O3     O3        0.522007784665508    0.977276182951133    0.282010953642556  0.0000
  O2     O2        0.024650848646517    0.006768381077559    0.741311346049740  0.0000
  O2     O2        0.498863367343371    0.973508683134723    0.764496468219863  0.0000
  O1     O1        0.579248264310139    0.261091169405674    0.126022252519147  0.0000
  O2     O2        0.924515341291613    0.804610893639436    0.097364853387460  0.0000
  O2     O2        0.416750263962074    0.196766880470236    0.904573412388925  0.0000
  O2     O2        0.098574961421874    0.801979374649147    0.901409249401718  0.0000
  O2     O2        0.380406346169171    0.856342778345514    0.896392078040852  0.0000
  O2     O2        0.134103973382965    0.142918915065299    0.887910649780970  0.0000
  O1     O1        0.649933370940004    0.942141573276141    0.115620962466202  0.0000
  O2     O2        0.874840483229592    0.139359442623876    0.109414224285094  0.0000
  O3     O3        0.506670310582758    0.950247664215847    0.012966697744278  0.0000
  O2     O2        0.002963654331317    0.058221981675560    0.988803627043892  0.0000
  O2     O2        0.146534358247808    0.479733336702431    0.305163143683141  0.0000
  O2     O2        0.368716106788079    0.525350434387402    0.313819776409753  0.0000
  O2     O2        0.869476503673617    0.470945808816855    0.699283145766126  0.0000
  O2     O2        0.639966359235849    0.530457155524956    0.718109235602722  0.0000
  O2     O2        0.267283877666962    0.262101134658164    0.312840260767962  0.0000
  O2     O2        0.247192394589427    0.743576214979633    0.319962112604646  0.0000
  O2     O2        0.742768283785610    0.270764549824447    0.684015581856796  0.0000
  O2     O2        0.764472337941162    0.726257320460216    0.672883445173810  0.0000
  O2     O2        0.160253791604931    0.223988215962798    0.132284021803323  0.0000
  O2     O2        0.351883022427539    0.770155580277920    0.136924697596783  0.0000
  O2     O2        0.831725863194980    0.243089538643932    0.881597066106278  0.0000
  O3     O3        0.672790282782352    0.817451631562661    0.859713207397381  0.0000
  O2     O2        0.863549764751727    0.729654594182989    0.870236821114402  0.0000
  O3     O3        0.641582029980197    0.273333620036569    0.880242411650914  0.0000
  O2     O2        0.140309418031622    0.736806810018450    0.136788779479777  0.0000
  O2     O2        0.377281862651713    0.273645899228556    0.136322677753063  0.0000
  O1     O1        0.627566379167724    0.580762034028449    0.044085199483379  0.0000
  O2     O2        0.880908745162372    0.479354612439942    0.047852289839937  0.0000
  O2     O2        0.373896458147623    0.522371292817771    0.960562725913994  0.0000
  O2     O2        0.139888167056874    0.477494324486478    0.962866280842607  0.0000
  O3     O3        0.745283468740762    0.320216332172163    0.082804873801812  0.0000
  O3     O3        0.774549276918566    0.726260057325052    0.069453538900269  0.0000
  O2     O2        0.267352844201899    0.273759690662946    0.956406090925632  0.0000
  O2     O2        0.246279046557280    0.725061166561533    0.954384801555269  0.0000
