data_c00247.vasp
_audit_creation_method             Generated by GULP
_audit_author_name                 Salvador R. G. Balestra
_symmetry_space_group_name_H-M     'P 1             '
_symmetry_Int_Tables_number        1

loop_
_symmetry_equiv_pos_site_id
_symmetry_equiv_pos_as_xyz
_cell_length_a                       17.1401
_cell_length_b                        7.5696
_cell_length_c                       10.2619
_cell_angle_alpha                   88.9310
_cell_angle_beta                    90.6373
_cell_angle_gamma                   90.9850

loop_
_atom_site_label
_atom_site_type_symbol
_atom_site_fract_x
_atom_site_fract_y
_atom_site_fract_z
_atom_site_charge
  Ge     Ge        0.052090000000021    0.000000000000000    0.372269999999958  0.0000
  Ge     Ge        0.560715626983473    0.003584715386542    0.116723774422441  0.0000
  Ge     Ge        0.854330157575836    0.347984362525615    0.713147549374799  0.0000
  Ge     Ge        0.864618025848298    0.350759284296949    0.034611434905057  0.0000
  Si     Si        0.454974360831135    0.007030585466749    0.373509965050465  0.0000
  Si     Si        0.954602855773260    0.036802115196657    0.632319715020183  0.0000
  Si     Si        0.550229286273356    0.014703909050516    0.635575033845974  0.0000
  Si     Si        0.952560570901987    0.020549379272478    0.110530952440591  0.0000
  Si     Si        0.445824702582017    0.022171165770232    0.876715384752070  0.0000
  Si     Si        0.064152360447978    0.020797393037613    0.874745591331775  0.0000
  Si     Si        0.158177407877996    0.317326675469097    0.288509176631099  0.0000
  Si     Si        0.354129526905891    0.694920170270237    0.291468571480684  0.0000
  Si     Si        0.654616126399411    0.711858196630236    0.735175155228003  0.0000
  Si     Si        0.831557164798739    0.747926025105915    0.727356171930337  0.0000
  Si     Si        0.672430952481210    0.302469152766248    0.727392587846524  0.0000
  Si     Si        0.174197466932049    0.726749248733769    0.289807989022280  0.0000
  Si     Si        0.338475820723899    0.289205307852866    0.290162886024994  0.0000
  Si     Si        0.681816629164461    0.288184799498128    0.032629643803473  0.0000
  Si     Si        0.831687395985701    0.738220225701947    0.039212661189362  0.0000
  Si     Si        0.337274193763218    0.301573495580328    0.986027722679851  0.0000
  Si     Si        0.172613216866851    0.735692514836812    0.987931390776794  0.0000
  Si     Si        0.353358611983815    0.702345787840353    0.988381937551007  0.0000
  Si     Si        0.156784273249360    0.331533454763915    0.987429946703882  0.0000
  Si     Si        0.654111831429363    0.685089203885172    0.037555338664726  0.0000
  O3     O3        0.097568513969468    0.205942565675131    0.373656486756358  0.0000
  O2     O2        0.413995466158827    0.812231455043070    0.376489131248245  0.0000
  O3     O3        0.921962461128780    0.232765667616065    0.625014159477662  0.0000
  O2     O2        0.591562018397859    0.826157504213072    0.655191159755400  0.0000
  O2     O2        0.880608629297986    0.918329336142470    0.680350352277847  0.0000
  O2     O2        0.612256980666914    0.174480227334030    0.652548615757630  0.0000
  O3     O3        0.125812757374440    0.846705558579242    0.382618989935989  0.0000
  O2     O2        0.387460916914595    0.154078315427950    0.379140485219362  0.0000
  O3     O3        0.985527334148259    0.977872689776450    0.494626446752850  0.0000
  O2     O2        0.516020596694299    0.024384465131325    0.490575994289329  0.0000
  O3     O3        0.999724327890218    0.952114537132320    0.233577388343611  0.0000
  O3     O3        0.501454709281937    0.044298550325842    0.243047190823370  0.0000
  O2     O2        0.028631425074642    0.014664560605229    0.730298342319526  0.0000
  O2     O2        0.476779272581156    0.032480773829919    0.730186299986951  0.0000
  O3     O3        0.641683315272939    0.141046738843721    0.121371690053305  0.0000
  O2     O2        0.869515466936357    0.916597504617644    0.094488574261011  0.0000
  O2     O2        0.378180872239912    0.165535729765527    0.893003339314951  0.0000
  O2     O2        0.130211052662462    0.872478003327854    0.890966463540479  0.0000
  O2     O2        0.411096411340076    0.825211633815696    0.904479936725801  0.0000
  O2     O2        0.100644318264008    0.216819436858163    0.894999535243593  0.0000
  O3     O3        0.592177704398525    0.787461332692954    0.120664971188976  0.0000
  O3     O3        0.931978420984389    0.224779019682935    0.120656299859029  0.0000
  O3     O3        0.515466498917056    0.066670321782645    0.973377823035627  0.0000
  O2     O2        0.997884677762083    0.977373059459383    0.978739088835233  0.0000
  O2     O2        0.146611603848476    0.524012240206799    0.310754764406782  0.0000
  O2     O2        0.367191715510340    0.488320460499462    0.321720228736044  0.0000
  O3     O3        0.864962948059144    0.570362813438680    0.669995492429511  0.0000
  O2     O2        0.642291468061322    0.503633449087075    0.710234389363005  0.0000
  O2     O2        0.247136009745349    0.264976174012039    0.323131280902247  0.0000
  O2     O2        0.265846553874602    0.745490385862714    0.323920061990391  0.0000
  O3     O3        0.758900988719511    0.290249600824018    0.672538504474498  0.0000
  O2     O2        0.740729280864847    0.773609605904328    0.686806871928159  0.0000
  O2     O2        0.140187361135287    0.272410972540264    0.136783071284183  0.0000
  O2     O2        0.371310718183466    0.740101661513605    0.139933406161548  0.0000
  O1     O1        0.878085935486345    0.308993683175516    0.873201823002816  0.0000
  O2     O2        0.643321355512146    0.752552389206672    0.887410293969780  0.0000
  O2     O2        0.833376435714106    0.719861105966204    0.882863908648403  0.0000
  O2     O2        0.678405605857529    0.243355067692020    0.878973211638230  0.0000
  O2     O2        0.160374045303657    0.786745514400547    0.138416328226493  0.0000
  O2     O2        0.351104868596643    0.249586274934863    0.137623954979982  0.0000
  O2     O2        0.639181755544100    0.476047656768962    0.051620347092407  0.0000
  O3     O3        0.878530361933788    0.566616557301096    0.085272988912768  0.0000
  O2     O2        0.370875320604543    0.499034553885794    0.957723686993064  0.0000
  O2     O2        0.138306831514269    0.538147459936710    0.964374988355827  0.0000
  O3     O3        0.770290525056220    0.301841049319935    0.078308415861783  0.0000
  O2     O2        0.742110624421688    0.734203766955937    0.085107906127584  0.0000
  O2     O2        0.245751822920954    0.294805266311643    0.952495735517893  0.0000
  O2     O2        0.263844057667739    0.744501790771618    0.954394882649130  0.0000
