data_c00220.vasp
_audit_creation_method             Generated by GULP
_audit_author_name                 Salvador R. G. Balestra
_symmetry_space_group_name_H-M     'P 1             '
_symmetry_Int_Tables_number        1

loop_
_symmetry_equiv_pos_site_id
_symmetry_equiv_pos_as_xyz
_cell_length_a                       17.2474
_cell_length_b                        7.6339
_cell_length_c                       10.1248
_cell_angle_alpha                   91.2929
_cell_angle_beta                    90.6152
_cell_angle_gamma                   88.5829

loop_
_atom_site_label
_atom_site_type_symbol
_atom_site_fract_x
_atom_site_fract_y
_atom_site_fract_z
_atom_site_charge
  Ge     Ge        0.052090000000021    0.000000000000000    0.372269999999958  0.0000
  Ge     Ge        0.562879881181026    0.982611500544785    0.123564017521525  0.0000
  Ge     Ge        0.158192552261083    0.305269164671688    0.282609801336048  0.0000
  Ge     Ge        0.349367043087714    0.632994301416759    0.944883662817208  0.0000
  Si     Si        0.455624669862814    0.971939122547954    0.372122179925425  0.0000
  Si     Si        0.951920021614338    0.950885335166612    0.631417138661650  0.0000
  Si     Si        0.553608481173452    0.982597728219574    0.631709474836596  0.0000
  Si     Si        0.945378541770372    0.950086579069262    0.121708572956439  0.0000
  Si     Si        0.448699761941569    0.935418404587423    0.877892165466561  0.0000
  Si     Si        0.057200127877443    0.967844844323077    0.885691876073837  0.0000
  Si     Si        0.353325808105377    0.668887758365742    0.260210198218467  0.0000
  Si     Si        0.837222565553757    0.250959734292730    0.695424991638245  0.0000
  Si     Si        0.667995055060594    0.686813886453412    0.708943591344397  0.0000
  Si     Si        0.847845260339341    0.651061121917887    0.704081180173782  0.0000
  Si     Si        0.659642987428315    0.282864487832623    0.699147389722103  0.0000
  Si     Si        0.176008835149349    0.711015992483167    0.260054388066019  0.0000
  Si     Si        0.341081775127023    0.266540866034706    0.278686702711592  0.0000
  Si     Si        0.659275915446111    0.287513635995829    0.007645080669382  0.0000
  Si     Si        0.853472186667643    0.640653710138456    0.011528888887650  0.0000
  Si     Si        0.337232288172332    0.233315999937498    0.969257016830587  0.0000
  Si     Si        0.169075707766431    0.667354361870979    0.949268176232433  0.0000
  Si     Si        0.157133423087897    0.272036071699155    0.969546201968834  0.0000
  Si     Si        0.673884319755521    0.685954221884034    0.015215360045628  0.0000
  Si     Si        0.837125521543695    0.245967543541540    0.006144287442281  0.0000
  O1     O1        0.090467500093696    0.204405130281604    0.373908906202024  0.0000
  O2     O2        0.413055771309849    0.790202452933392    0.340528619849118  0.0000
  O2     O2        0.891285275222341    0.115086896419660    0.612351223065379  0.0000
  O2     O2        0.615394234645881    0.819432803966134    0.623458663652635  0.0000
  O2     O2        0.903316647122828    0.772035934836288    0.620788004330044  0.0000
  O2     O2        0.599878699269170    0.163238546378987    0.616362902342702  0.0000
  O3     O3        0.131150209446812    0.868628796919651    0.331132692661827  0.0000
  O2     O2        0.396073371835656    0.137568492978817    0.362904628817649  0.0000
  O3     O3        0.018726454386802    0.949168039155265    0.526121583981378  0.0000
  O2     O2        0.488029592774851    0.963863299810402    0.521052542742233  0.0000
  O3     O3        0.972214614958876    0.973033737638011    0.270789008487156  0.0000
  O3     O3        0.529409315438505    0.995650056592054    0.281765913504144  0.0000
  O2     O2        0.991267610128013    0.968988792211120    0.775282407401166  0.0000
  O2     O2        0.510885538281880    0.986962329468460    0.771482254973107  0.0000
  O3     O3        0.599502396734239    0.184799990287192    0.090867119389975  0.0000
  O2     O2        0.909335970205455    0.758075299177119    0.101787209214999  0.0000
  O2     O2        0.377923902722708    0.078026236565642    0.885416931265608  0.0000
  O2     O2        0.113739541377685    0.797869079945367    0.866247197967562  0.0000
  O3     O3        0.410541688049294    0.749530424916105    0.848045928485229  0.0000
  O2     O2        0.105738005164755    0.145153198192618    0.876812284691468  0.0000
  O3     O3        0.635078773420231    0.822969757349202    0.114020990124112  0.0000
  O2     O2        0.882376180422441    0.100837321768270    0.088417831237543  0.0000
  O3     O3        0.488513580789073    0.927430133738870    0.020574123059873  0.0000
  O2     O2        0.020160526880218    0.964120260276619    0.030355709121279  0.0000
  O3     O3        0.139851635417047    0.527739320652627    0.297123527462129  0.0000
  O2     O2        0.372264401861651    0.464803658483145    0.290511894637902  0.0000
  O2     O2        0.863790639236686    0.447399490609193    0.664906699406770  0.0000
  O2     O2        0.641717829841431    0.488481019969260    0.676201090314854  0.0000
  O3     O3        0.253754555869634    0.260812576535326    0.328406311722362  0.0000
  O2     O2        0.265796667642606    0.714374854705201    0.307247197216089  0.0000
  O2     O2        0.747170610081455    0.233116696436112    0.653206017993790  0.0000
  O2     O2        0.758349394803353    0.704351050525603    0.673551505743870  0.0000
  O3     O3        0.144849636284805    0.230961852827428    0.121329810450161  0.0000
  O3     O3        0.360339562189408    0.704518434309349    0.106563739459409  0.0000
  O2     O2        0.845721300062454    0.208997881072514    0.850081104874788  0.0000
  O2     O2        0.656150421079342    0.738085743111086    0.863248092365219  0.0000
  O2     O2        0.867283632483828    0.681187834079527    0.858516999388310  0.0000
  O2     O2        0.649810536591973    0.239828233675791    0.852594511098376  0.0000
  O2     O2        0.173605165273450    0.731242875087856    0.101754447598489  0.0000
  O2     O2        0.345990518215346    0.201907002462559    0.125865495263377  0.0000
  O2     O2        0.641245349393243    0.492824681181234    0.035251116289866  0.0000
  O2     O2        0.872078821541500    0.436722713546057    0.040894352254163  0.0000
  O3     O3        0.375195195552295    0.414229717110462    0.932564253846562  0.0000
  O2     O2        0.133084677421017    0.473439472880935    0.940241300547617  0.0000
  O2     O2        0.747861539258612    0.239770905836286    0.049054714305845  0.0000
  O2     O2        0.765090386015072    0.686599964570840    0.046127366537818  0.0000
  O2     O2        0.246751091225105    0.241072408714239    0.930918791138739  0.0000
  O3     O3        0.254597734901645    0.664036484366484    0.891559902829909  0.0000
