data_c00242.vasp
_audit_creation_method             Generated by GULP
_audit_author_name                 Salvador R. G. Balestra
_symmetry_space_group_name_H-M     'P 1             '
_symmetry_Int_Tables_number        1

loop_
_symmetry_equiv_pos_site_id
_symmetry_equiv_pos_as_xyz
_cell_length_a                       17.0517
_cell_length_b                        7.5969
_cell_length_c                       10.4342
_cell_angle_alpha                   89.2946
_cell_angle_beta                    90.6728
_cell_angle_gamma                   90.1893

loop_
_atom_site_label
_atom_site_type_symbol
_atom_site_fract_x
_atom_site_fract_y
_atom_site_fract_z
_atom_site_charge
  Ge     Ge        0.052090000000021    0.000000000000000    0.372269999999958  0.0000
  Ge     Ge        0.555606184241538    0.983381697019301    0.113937456106272  0.0000
  Ge     Ge        0.852609912844962    0.320297585389119    0.709728427417154  0.0000
  Ge     Ge        0.330467492169565    0.275968457777440    0.968586470693446  0.0000
  Si     Si        0.454780454954857    0.986215593488952    0.368284515472040  0.0000
  Si     Si        0.954701180279638    0.010012963274375    0.634355902183511  0.0000
  Si     Si        0.550175668548467    0.990029039721937    0.628687271385076  0.0000
  Si     Si        0.940497611121396    0.995156209283154    0.123106813216946  0.0000
  Si     Si        0.441956191207521    0.997280152235697    0.872838666641591  0.0000
  Si     Si        0.053885057008230    0.004396609454209    0.892391846221907  0.0000
  Si     Si        0.157277169808536    0.312858616071622    0.280437593080107  0.0000
  Si     Si        0.354338938965534    0.678662409323998    0.270452656467401  0.0000
  Si     Si        0.653160492245309    0.683126586868851    0.715905653768921  0.0000
  Si     Si        0.833579924852521    0.729172695584465    0.720842593416792  0.0000
  Si     Si        0.667724616237226    0.277984470835467    0.707878099961946  0.0000
  Si     Si        0.174015943293697    0.718193439976056    0.278064803479536  0.0000
  Si     Si        0.336921773654528    0.271143798689938    0.273239171032983  0.0000
  Si     Si        0.671820171159261    0.265590314421710    0.006534970516028  0.0000
  Si     Si        0.829461641314743    0.711067667848918    0.021076512657744  0.0000
  Si     Si        0.168149681245851    0.720825653716546    0.981103278576932  0.0000
  Si     Si        0.350895029557017    0.680033751779772    0.973370925212842  0.0000
  Si     Si        0.147432409185836    0.322108414164335    0.980876714048462  0.0000
  Si     Si        0.648724833768142    0.663653003321911    0.013440717105857  0.0000
  Si     Si        0.853592393564690    0.314576141063466    0.013953862384768  0.0000
  O3     O3        0.095805908389938    0.205079163057513    0.363214605260076  0.0000
  O2     O2        0.415364060550415    0.793088609009519    0.352794049082801  0.0000
  O3     O3        0.919258028688509    0.204600016441270    0.621257795917630  0.0000
  O2     O2        0.595352301223683    0.803790512570005    0.630278220022705  0.0000
  O2     O2        0.878859193146347    0.881898167514892    0.644629564030720  0.0000
  O2     O2        0.612836579341516    0.149749286297673    0.624057186743848  0.0000
  O3     O3        0.126357901789111    0.847071940417460    0.364728689844040  0.0000
  O2     O2        0.388964286076050    0.137964491769621    0.358413630734438  0.0000
  O3     O3        0.008750201452064    0.965472904230335    0.517446757274312  0.0000
  O2     O2        0.493519383416037    0.998523619598108    0.507258765539619  0.0000
  O3     O3        0.978577949626232    0.972596797428122    0.261057304723765  0.0000
  O3     O3        0.521862496132363    0.013964574223882    0.265339878769315  0.0000
  O2     O2        0.007376986635529    0.984299506531046    0.761482236368746  0.0000
  O2     O2        0.497407100266966    0.008574914541835    0.752720081999527  0.0000
  O3     O3        0.635871648586762    0.120025537680547    0.096766943875763  0.0000
  O2     O2        0.869655558125860    0.854649359811126    0.111523571304284  0.0000
  O3     O3        0.371560205820559    0.135030564013695    0.862099697877331  0.0000
  O2     O2        0.126785798964292    0.868235028637972    0.892548483972889  0.0000
  O2     O2        0.405593052394823    0.801176956347041    0.885054154510886  0.0000
  O2     O2        0.083958749507629    0.205872569530173    0.903847207545700  0.0000
  O3     O3        0.586911677751455    0.768686991241368    0.094999275267524  0.0000
  O2     O2        0.908321336895294    0.194428766197381    0.106222046346514  0.0000
  O3     O3        0.487700881022144    0.050763395544377    0.001803590982454  0.0000
  O2     O2        0.002204861657267    0.949691737130155    0.013593385871963  0.0000
  O2     O2        0.144031129107184    0.519372489267873    0.302377876240954  0.0000
  O2     O2        0.368893388584272    0.470681856745474    0.291100118968034  0.0000
  O3     O3        0.868780873007241    0.541898353378880    0.685635588071493  0.0000
  O2     O2        0.637502675720305    0.478356877381491    0.687206061897352  0.0000
  O2     O2        0.246602699134159    0.260491503541078    0.318063295684704  0.0000
  O2     O2        0.266503830597934    0.728365661023202    0.310852962705389  0.0000
  O3     O3        0.757329634660809    0.267297060462062    0.666534678860262  0.0000
  O2     O2        0.742121382990653    0.732682473898457    0.679607424118974  0.0000
  O2     O2        0.143072896613149    0.267648915553824    0.130857605964882  0.0000
  O2     O2        0.368554895388410    0.729466442208013    0.121739411881390  0.0000
  O3     O3        0.871886209215581    0.268185570578304    0.868561888236741  0.0000
  O2     O2        0.637599111067960    0.723431202265321    0.864822742183293  0.0000
  O2     O2        0.839862077413451    0.764332785529613    0.872612810591256  0.0000
  O2     O2        0.661403722831105    0.218389092216430    0.856625801535312  0.0000
  O2     O2        0.160564064497785    0.774360493460829    0.129477026889503  0.0000
  O3     O3        0.342322663711351    0.213180964106541    0.126987238298511  0.0000
  O2     O2        0.632129364789996    0.455839861118667    0.029962852919819  0.0000
  O2     O2        0.869739680958924    0.520148142613729    0.044101530241590  0.0000
  O3     O3        0.372189532531062    0.481449330098105    0.947676127570463  0.0000
  O2     O2        0.128430290474026    0.529338463374102    0.959705463949811  0.0000
  O2     O2        0.763223450193589    0.274937173345639    0.041538115274161  0.0000
  O2     O2        0.738007712592145    0.705632458099007    0.056936178073013  0.0000
  O3     O3        0.232611592413005    0.283112991907517    0.928801283885560  0.0000
  O2     O2        0.259070480770537    0.713233476422080    0.942709098163240  0.0000
