data_c00295.vasp
_audit_creation_method             Generated by GULP
_audit_author_name                 Salvador R. G. Balestra
_symmetry_space_group_name_H-M     'P 1             '
_symmetry_Int_Tables_number        1

loop_
_symmetry_equiv_pos_site_id
_symmetry_equiv_pos_as_xyz
_cell_length_a                       17.1991
_cell_length_b                        7.6133
_cell_length_c                       10.2491
_cell_angle_alpha                   89.8219
_cell_angle_beta                    91.1596
_cell_angle_gamma                   90.3108

loop_
_atom_site_label
_atom_site_type_symbol
_atom_site_fract_x
_atom_site_fract_y
_atom_site_fract_z
_atom_site_charge
  Ge     Ge        0.052090000000021    0.000000000000000    0.372269999999958  0.0000
  Ge     Ge        0.951791508056213    0.019986557381723    0.098876703357981  0.0000
  Ge     Ge        0.175714668751097    0.274093073829098    0.276086565098577  0.0000
  Ge     Ge        0.156307085103021    0.693175004849967    0.281169326106579  0.0000
  Si     Si        0.458562227766169    0.026934316406139    0.364022488665617  0.0000
  Si     Si        0.946397872869045    0.013135877134797    0.618985784398935  0.0000
  Si     Si        0.550354572215248    0.022469033336312    0.632926068250202  0.0000
  Si     Si        0.559946271777719    0.021715301489962    0.118487555367526  0.0000
  Si     Si        0.443455536049490    0.025659111236485    0.880616107598371  0.0000
  Si     Si        0.059989267796451    0.013355394372334    0.854322328226813  0.0000
  Si     Si        0.339574062729398    0.737430740114037    0.273637142464286  0.0000
  Si     Si        0.834532105532959    0.303573976290867    0.724124447938324  0.0000
  Si     Si        0.665578091597922    0.731884358840319    0.716246591234134  0.0000
  Si     Si        0.844522395780658    0.709549772131516    0.722200603396562  0.0000
  Si     Si        0.655954625095553    0.328752188240807    0.716499052470985  0.0000
  Si     Si        0.357200900245698    0.335292420732871    0.271394619374530  0.0000
  Si     Si        0.653549068428491    0.336647761000158    0.021590897520924  0.0000
  Si     Si        0.848798298892370    0.703492203413088    0.025803172640885  0.0000
  Si     Si        0.349178011872129    0.340852425903971    0.964956861472428  0.0000
  Si     Si        0.153203815511302    0.703150887206470    0.973219131290027  0.0000
  Si     Si        0.332130909229627    0.737026742187801    0.966827587736957  0.0000
  Si     Si        0.170610040908297    0.296395699661257    0.967182142750714  0.0000
  Si     Si        0.669344838697633    0.734215938221724    0.021026101237014  0.0000
  Si     Si        0.831999769824103    0.303878156110828    0.027939410254783  0.0000
  O1     O1        0.132271954888129    0.135308636851767    0.382000817090998  0.0000
  O2     O2        0.392422673707304    0.877759166278691    0.350524972502858  0.0000
  O2     O2        0.888777166298644    0.174670953831577    0.643995512727156  0.0000
  O2     O2        0.612331974849123    0.864125927781048    0.632692088045418  0.0000
  O2     O2        0.901919448935468    0.827919488640553    0.637265334183298  0.0000
  O2     O2        0.596981869214019    0.206909902563023    0.633924426625528  0.0000
  O1     O1        0.090333029018919    0.794108881908615    0.377276439075528  0.0000
  O2     O2        0.421865424508086    0.219895356702635    0.346598017453304  0.0000
  O3     O3        0.974707569145426    0.028277257670193    0.472649959756412  0.0000
  O2     O2        0.496629309396522    0.011011715043886    0.505862233016535  0.0000
  O1     O1        0.018545087325509    0.052986782541159    0.217137972569611  0.0000
  O2     O2        0.525704576905964    0.998625997579340    0.260530645567670  0.0000
  O2     O2        0.025883388588751    0.018245468327732    0.706415463450241  0.0000
  O2     O2        0.494355844861609    0.004624205305186    0.754608389875660  0.0000
  O2     O2        0.595357995767609    0.217136573111537    0.103778209637643  0.0000
  O3     O3        0.908857735132990    0.813448331898058    0.111554925690059  0.0000
  O2     O2        0.406411738437613    0.220449098875622    0.881852604865871  0.0000
  O2     O2        0.095317853752367    0.819353356392225    0.882564531435155  0.0000
  O2     O2        0.374724780469486    0.880524908265881    0.878405364832296  0.0000
  O2     O2        0.124908192602614    0.166965490866031    0.868040534592083  0.0000
  O2     O2        0.626658068936311    0.876671358594530    0.106922121792792  0.0000
  O3     O3        0.877578269009770    0.170693466668569    0.117286369843016  0.0000
  O2     O2        0.493995924581028    0.986907783408348    0.009856356530481  0.0000
  O3     O3        0.990150866442680    0.055075786174940    0.947689716899530  0.0000
  O1     O1        0.136961553568857    0.477291978476322    0.296894789278322  0.0000
  O2     O2        0.372555400220588    0.541418852598012    0.299120782967654  0.0000
  O2     O2        0.861531479518895    0.504129551122990    0.697318398110358  0.0000
  O2     O2        0.638826926322369    0.532592191276800    0.685146132031733  0.0000
  O3     O3        0.273184462852802    0.281854606797959    0.319284193834577  0.0000
  O3     O3        0.251962949056876    0.747398208434416    0.321525885442862  0.0000
  O2     O2        0.744337875050565    0.281853138431073    0.679342197861947  0.0000
  O2     O2        0.755908117419885    0.754731790234874    0.679903739315257  0.0000
  O3     O3        0.164964814168754    0.219911590388536    0.111970294156108  0.0000
  O2     O2        0.340569822963240    0.782016898413086    0.119619003460263  0.0000
  O2     O2        0.841865155792491    0.253747354650484    0.875942222847596  0.0000
  O2     O2        0.656745652075185    0.777275908645731    0.868386499490040  0.0000
  O2     O2        0.860209065610794    0.755297491692431    0.873716035321486  0.0000
  O2     O2        0.642031874897365    0.291367567128182    0.869018163549448  0.0000
  O3     O3        0.140288044737017    0.762120768396132    0.120324834776743  0.0000
  O2     O2        0.361689283283905    0.295950360839030    0.117093763629750  0.0000
  O2     O2        0.634738835315034    0.540221363538823    0.049395264325088  0.0000
  O2     O2        0.866240143142114    0.499264034872475    0.050149202791701  0.0000
  O2     O2        0.368261275747107    0.545401006751533    0.937695360678633  0.0000
  O2     O2        0.135018495288744    0.494082563094082    0.960595716759157  0.0000
  O2     O2        0.741708767531599    0.297074908893161    0.065026085352121  0.0000
  O2     O2        0.759869642092220    0.744287689251231    0.061301479298851  0.0000
  O2     O2        0.260071860504923    0.302000571861793    0.923653490514973  0.0000
  O2     O2        0.241124210811283    0.738886490247397    0.928149868735915  0.0000
