data_c00267.vasp
_audit_creation_method             Generated by GULP
_audit_author_name                 Salvador R. G. Balestra
_symmetry_space_group_name_H-M     'P 1             '
_symmetry_Int_Tables_number        1

loop_
_symmetry_equiv_pos_site_id
_symmetry_equiv_pos_as_xyz
_cell_length_a                       17.0056
_cell_length_b                        7.5825
_cell_length_c                       10.4607
_cell_angle_alpha                   89.7201
_cell_angle_beta                    91.0319
_cell_angle_gamma                   89.7558

loop_
_atom_site_label
_atom_site_type_symbol
_atom_site_fract_x
_atom_site_fract_y
_atom_site_fract_z
_atom_site_charge
  Ge     Ge        0.052090000000021    0.000000000000000    0.372269999999958  0.0000
  Ge     Ge        0.560862587942848    0.002770682532675    0.121952409782391  0.0000
  Ge     Ge        0.861582654602131    0.668059331941633    0.017242024195302  0.0000
  Ge     Ge        0.169329460700678    0.278541116594845    0.979556145605096  0.0000
  Si     Si        0.454382834232812    0.012069107617436    0.372238041106581  0.0000
  Si     Si        0.945984123020807    0.993180314443676    0.628920317209570  0.0000
  Si     Si        0.545257072882410    0.012931521873311    0.638196737832960  0.0000
  Si     Si        0.952019321330962    0.992339196094311    0.113229497138337  0.0000
  Si     Si        0.443577263635663    0.005823564199142    0.885169575783263  0.0000
  Si     Si        0.057214402641295    0.999769457824938    0.876055440333544  0.0000
  Si     Si        0.173532671823729    0.279532617330023    0.280288149386826  0.0000
  Si     Si        0.336624140626163    0.728381823317492    0.278066832819711  0.0000
  Si     Si        0.829420654991946    0.281892817102934    0.712069841796531  0.0000
  Si     Si        0.665636303944953    0.725079248640730    0.727914296836020  0.0000
  Si     Si        0.845988012538927    0.685561786717204    0.712718093192485  0.0000
  Si     Si        0.649439428915417    0.318544132612443    0.723565592231858  0.0000
  Si     Si        0.155389942872236    0.690589643441123    0.275456895326879  0.0000
  Si     Si        0.353469131757057    0.324980405026237    0.280621217887073  0.0000
  Si     Si        0.653795107311670    0.322255372040100    0.019800655780742  0.0000
  Si     Si        0.353721753519271    0.327743518713878    0.980575436514932  0.0000
  Si     Si        0.149236857156757    0.685833963116572    0.982134588481203  0.0000
  Si     Si        0.332689162970955    0.724235537628599    0.980045669860024  0.0000
  Si     Si        0.677242862997919    0.720551726554002    0.025448968936819  0.0000
  Si     Si        0.834687775616283    0.266808193556536    0.012540776062060  0.0000
  O3     O3        0.124248978922477    0.159743392592023    0.373861013616583  0.0000
  O2     O2        0.385411145819613    0.866673624901609    0.362096221583665  0.0000
  O2     O2        0.879511750637721    0.146470707413675    0.628674657289895  0.0000
  O2     O2        0.611409018726480    0.860411830382516    0.647946764040773  0.0000
  O2     O2        0.902078904421779    0.804365120556713    0.624216853535505  0.0000
  O2     O2        0.587064078632721    0.204041798669832    0.642399333137512  0.0000
  O3     O3        0.096192535727739    0.794516119773024    0.363347666796937  0.0000
  O2     O2        0.416391952297093    0.207363052141697    0.359207087221865  0.0000
  O3     O3        0.001361200383533    0.015479056311422    0.510850843479899  0.0000
  O2     O2        0.497672913005963    0.993682815087558    0.507392021730626  0.0000
  O3     O3        0.985003867311904    0.039305163890531    0.250964325739103  0.0000
  O3     O3        0.518098269237863    0.977296826336640    0.266345010058777  0.0000
  O2     O2        0.000640398837665    0.009336307883084    0.754685025705772  0.0000
  O2     O2        0.482250648380036    0.991248944892518    0.748554651609281  0.0000
  O3     O3        0.595305941385296    0.215636761455635    0.106717726375501  0.0000
  O3     O3        0.931452862596477    0.786485821612180    0.101006648928249  0.0000
  O2     O2        0.416468370830603    0.208173666387597    0.906964160013544  0.0000
  O2     O2        0.093987029271760    0.803193375914602    0.888973013819220  0.0000
  O2     O2        0.368817113365917    0.873647036068261    0.889957951517833  0.0000
  O3     O3        0.126574481037637    0.140120338397826    0.869483980776204  0.0000
  O3     O3        0.639157374170349    0.858431572648472    0.118425989227418  0.0000
  O2     O2        0.870773323486360    0.100184502064323    0.087980031970561  0.0000
  O3     O3        0.501296241436543    0.940475238560103    0.996575761816574  0.0000
  O2     O2        0.012509713473101    0.054341743494650    0.005117102112272  0.0000
  O2     O2        0.143278821833885    0.481470390128044    0.286750060572365  0.0000
  O2     O2        0.368802485870731    0.531145562573909    0.307861779503346  0.0000
  O2     O2        0.860533031595152    0.479072038697475    0.683847676383494  0.0000
  O2     O2        0.633348155843988    0.526981104768401    0.705286003285255  0.0000
  O2     O2        0.265600814656995    0.273573595246053    0.320876145067553  0.0000
  O2     O2        0.245026168121383    0.741582647876442    0.313542711197913  0.0000
  O2     O2        0.736915397770318    0.270729463446837    0.675795573525990  0.0000
  O2     O2        0.755223845406462    0.735489657772059    0.680640510648681  0.0000
  O3     O3        0.163229070374477    0.208696259522744    0.136369083757046  0.0000
  O2     O2        0.346291941612027    0.775322255642886    0.128584310729740  0.0000
  O2     O2        0.839879747654802    0.234314667564192    0.860802104970565  0.0000
  O2     O2        0.666195186379064    0.779017660725108    0.876650146793883  0.0000
  O3     O3        0.868593922520987    0.726027879109874    0.858222090967971  0.0000
  O2     O2        0.639214163559303    0.265653947012044    0.871922681385161  0.0000
  O2     O2        0.136921648819750    0.749769347725478    0.128493455796879  0.0000
  O2     O2        0.363956393696124    0.283631111630192    0.131176886269223  0.0000
  O2     O2        0.637095918989395    0.528541310260207    0.039781473144756  0.0000
  O3     O3        0.880244666845410    0.446255653435000    0.043407349133897  0.0000
  O2     O2        0.372510882203275    0.533800213852840    0.954101208376239  0.0000
  O3     O3        0.126272342021295    0.484943633638569    0.965048310746328  0.0000
  O2     O2        0.744674567386679    0.281408653631592    0.055505970792605  0.0000
  O3     O3        0.767861618308470    0.709343728983121    0.065634673255362  0.0000
  O3     O3        0.266290551289717    0.286191803803121    0.935370063565437  0.0000
  O2     O2        0.240363846919283    0.712282607978677    0.947330340831275  0.0000
