data_c00299.vasp
_audit_creation_method             Generated by GULP
_audit_author_name                 Salvador R. G. Balestra
_symmetry_space_group_name_H-M     'P 1             '
_symmetry_Int_Tables_number        1

loop_
_symmetry_equiv_pos_site_id
_symmetry_equiv_pos_as_xyz
_cell_length_a                       17.2026
_cell_length_b                        7.6139
_cell_length_c                       10.2392
_cell_angle_alpha                   89.9202
_cell_angle_beta                    90.7241
_cell_angle_gamma                   90.1602

loop_
_atom_site_label
_atom_site_type_symbol
_atom_site_fract_x
_atom_site_fract_y
_atom_site_fract_z
_atom_site_charge
  Ge     Ge        0.052090000000021    0.000000000000000    0.372269999999958  0.0000
  Ge     Ge        0.944884520646806    0.004987466209015    0.104911596743242  0.0000
  Ge     Ge        0.172792722872764    0.286417587540520    0.281925644601696  0.0000
  Ge     Ge        0.348102970141856    0.339830708008809    0.960850450920440  0.0000
  Si     Si        0.454287428306849    0.017733086161230    0.365552035227786  0.0000
  Si     Si        0.946099327868775    0.994925277903996    0.623420479701995  0.0000
  Si     Si        0.550329616424097    0.005386734359979    0.629996981787392  0.0000
  Si     Si        0.554835508870239    0.011075140523739    0.115864007354778  0.0000
  Si     Si        0.442525603250030    0.021846522264930    0.874364578151399  0.0000
  Si     Si        0.054420021123841    0.010781487803481    0.863448552111823  0.0000
  Si     Si        0.337610430780634    0.730909329957643    0.274259297922115  0.0000
  Si     Si        0.832460956571915    0.284886605097256    0.727561344769943  0.0000
  Si     Si        0.665228812812847    0.716648528107734    0.714588201950412  0.0000
  Si     Si        0.844028843926236    0.690640426527923    0.724762649908696  0.0000
  Si     Si        0.653991695202547    0.313663329752086    0.717413415938779  0.0000
  Si     Si        0.157439075386162    0.696982709036694    0.285014514057127  0.0000
  Si     Si        0.354151020929698    0.327060293008474    0.273788668279521  0.0000
  Si     Si        0.648413884879657    0.326222765339082    0.022376718947045  0.0000
  Si     Si        0.844511910978154    0.687051674145703    0.028696500588800  0.0000
  Si     Si        0.150418153753569    0.702428369077349    0.983096511192837  0.0000
  Si     Si        0.329803476803510    0.743429405119064    0.969160881778656  0.0000
  Si     Si        0.166301140405584    0.297997286919438    0.971057228873611  0.0000
  Si     Si        0.665245016829735    0.723006393115698    0.019664708684595  0.0000
  Si     Si        0.826696257249295    0.288632677592571    0.031838906332905  0.0000
  O1     O1        0.122121039406903    0.158777143298020    0.386797366143323  0.0000
  O2     O2        0.386883751051548    0.869994538244013    0.358491564115621  0.0000
  O2     O2        0.886354639920762    0.153909626466181    0.647396299073013  0.0000
  O2     O2        0.613632567315753    0.849204037863328    0.628381764917986  0.0000
  O2     O2        0.903083167094825    0.807982080107202    0.641922651345390  0.0000
  O2     O2        0.595119194762290    0.191734651076042    0.635555723884593  0.0000
  O3     O3        0.101462738969305    0.802813786088797    0.378290283273043  0.0000
  O2     O2        0.417489394650050    0.211476739733915    0.353113212607453  0.0000
  O3     O3        0.975176073177676    0.006159329202216    0.476917938663127  0.0000
  O2     O2        0.497784661505911    0.998707365439135    0.502189738654267  0.0000
  O1     O1        0.013449895756429    0.038790960845798    0.219470371496311  0.0000
  O2     O2        0.517806370472848    0.985228392444320    0.255737872204345  0.0000
  O2     O2        0.023877476000682    0.007483521026088    0.713597520769005  0.0000
  O2     O2        0.492840159004927    0.976900801820166    0.749760025248420  0.0000
  O2     O2        0.589232236641084    0.208084849621039    0.104328785855532  0.0000
  O3     O3        0.903292845581718    0.797708168158727    0.115844921798185  0.0000
  O3     O3        0.412651988530698    0.220162825690829    0.869794956362198  0.0000
  O2     O2        0.091766037134065    0.820807337326955    0.898171698559158  0.0000
  O2     O2        0.366128603915222    0.897127386782763    0.881260291710281  0.0000
  O2     O2        0.116304088040241    0.168652604381409    0.878576114616078  0.0000
  O2     O2        0.622699707597815    0.868038850854617    0.104537614182672  0.0000
  O3     O3        0.869913197306440    0.154550747031170    0.123653953814711  0.0000
  O2     O2        0.491326076331286    0.977070284269086    0.004235183899640  0.0000
  O3     O3        0.981689742844173    0.046315138715965    0.952555084707751  0.0000
  O3     O3        0.137472179866342    0.495657243923952    0.300425602688318  0.0000
  O2     O2        0.371174264741245    0.534942593778349    0.294594266607831  0.0000
  O2     O2        0.860602056521972    0.484581820522545    0.700667992919999  0.0000
  O2     O2        0.637726360554885    0.517581442221316    0.684728283219115  0.0000
  O3     O3        0.269722791088070    0.280884538444404    0.325959643934739  0.0000
  O2     O2        0.248135861291278    0.736266706371019    0.319451380078748  0.0000
  O2     O2        0.742539692578577    0.264940933234641    0.681681440625995  0.0000
  O2     O2        0.756005552944056    0.736550705732244    0.679785989777686  0.0000
  O3     O3        0.164818138164712    0.227485979784899    0.118702080167157  0.0000
  O2     O2        0.341697867206475    0.784630911996208    0.122640104118266  0.0000
  O2     O2        0.837642881585347    0.236792803536856    0.880006482682301  0.0000
  O2     O2        0.654927702383163    0.764865053381213    0.866398978712578  0.0000
  O2     O2        0.857471186068689    0.737022009733506    0.876663079131863  0.0000
  O2     O2        0.638059947368582    0.278436888919437    0.869905570446102  0.0000
  O2     O2        0.140660881874924    0.757765006093767    0.134332055720508  0.0000
  O3     O3        0.360075301638921    0.280096329656582    0.121933736231266  0.0000
  O2     O2        0.628990129009130    0.530379043240997    0.047916138602410  0.0000
  O2     O2        0.861806344592198    0.482998134712846    0.054195522053906  0.0000
  O3     O3        0.368565357178166    0.558899524333864    0.936131251952761  0.0000
  O2     O2        0.130516705133394    0.496169777889777    0.966136261019858  0.0000
  O2     O2        0.735996747835434    0.286546601634205    0.067471153280410  0.0000
  O2     O2        0.755217986249036    0.729200550268670    0.062310426789521  0.0000
  O3     O3        0.252667479650993    0.302196743487209    0.916598386748958  0.0000
  O2     O2        0.238024618527254    0.736390635043692    0.936348611546543  0.0000
