data_c00275.vasp
_audit_creation_method             Generated by GULP
_audit_author_name                 Salvador R. G. Balestra
_symmetry_space_group_name_H-M     'P 1             '
_symmetry_Int_Tables_number        1

loop_
_symmetry_equiv_pos_site_id
_symmetry_equiv_pos_as_xyz
_cell_length_a                       17.0859
_cell_length_b                        7.5896
_cell_length_c                       10.3451
_cell_angle_alpha                   89.0600
_cell_angle_beta                    90.0175
_cell_angle_gamma                   90.1841

loop_
_atom_site_label
_atom_site_type_symbol
_atom_site_fract_x
_atom_site_fract_y
_atom_site_fract_z
_atom_site_charge
  Ge     Ge        0.052090000000021    0.000000000000000    0.372269999999958  0.0000
  Ge     Ge        0.940746409760757    0.008639829346980    0.111893334955020  0.0000
  Ge     Ge        0.436764575980135    0.032900949804294    0.857973828445711  0.0000
  Ge     Ge        0.335295050186006    0.744787063066265    0.277534379982517  0.0000
  Si     Si        0.455548072824865    0.023271291210306    0.360966771986409  0.0000
  Si     Si        0.950725082898625    0.012640206783694    0.632630750173095  0.0000
  Si     Si        0.552504628800616    0.030409689696808    0.616133218708951  0.0000
  Si     Si        0.548784074050301    0.010777905381377    0.101268871853693  0.0000
  Si     Si        0.053881938550735    0.015713678949932    0.875944475514635  0.0000
  Si     Si        0.174022994013757    0.282102512701011    0.284434379630937  0.0000
  Si     Si        0.833334185323839    0.298958269829290    0.730954838647871  0.0000
  Si     Si        0.667083241517513    0.738523887834107    0.719476113921531  0.0000
  Si     Si        0.846503197333665    0.706263563248930    0.731188063216851  0.0000
  Si     Si        0.654033197588767    0.334215042322317    0.716317929609185  0.0000
  Si     Si        0.151537819039074    0.685835354902068    0.292594010046309  0.0000
  Si     Si        0.355220093619991    0.332041264390796    0.269987571369737  0.0000
  Si     Si        0.642492899067120    0.333540851417474    0.017806747330645  0.0000
  Si     Si        0.843707575949608    0.688684099652990    0.031969562325077  0.0000
  Si     Si        0.346941876503947    0.349444512206267    0.971822442727958  0.0000
  Si     Si        0.143482894213650    0.696903354191561    0.991519425549544  0.0000
  Si     Si        0.323895107291626    0.753314439124484    0.973264721514354  0.0000
  Si     Si        0.166057277588630    0.297376521824777    0.983984435258155  0.0000
  Si     Si        0.663557365958202    0.730074429573182    0.021722951341925  0.0000
  Si     Si        0.822064047544691    0.289821729951139    0.031458786874294  0.0000
  O3     O3        0.130990132058814    0.144845102702404    0.376831067032107  0.0000
  O3     O3        0.388451273197616    0.877487898431999    0.378411810475543  0.0000
  O2     O2        0.888857633606112    0.169900331193288    0.652493894147887  0.0000
  O2     O2        0.615176694158701    0.874519400270960    0.637347524382679  0.0000
  O2     O2        0.907629326713715    0.823933587124164    0.650123149240784  0.0000
  O2     O2        0.595414801113081    0.218456123234198    0.631793393768228  0.0000
  O3     O3        0.090019940644898    0.789044055964386    0.378773285438340  0.0000
  O2     O2        0.414779666212651    0.214660389760616    0.354529784377204  0.0000
  O3     O3        0.983353261423609    0.029549408433878    0.490003932145621  0.0000
  O2     O2        0.520582687483649    0.019197663245043    0.471256463058881  0.0000
  O1     O1        0.004271700386244    0.046773435021209    0.231514142734835  0.0000
  O2     O2        0.497591512719360    0.977882479452585    0.227069461113331  0.0000
  O2     O2        0.025677446757687    0.023813742864314    0.727592121018746  0.0000
  O3     O3        0.478089347458771    0.013845745928414    0.708453937064282  0.0000
  O2     O2        0.580529619918768    0.212459666229625    0.095174188391640  0.0000
  O3     O3        0.902742008189394    0.796443345617003    0.118692870353306  0.0000
  O3     O3        0.402987634928308    0.245784973279971    0.877428266619460  0.0000
  O2     O2        0.082481025112972    0.817118070554944    0.912131714288918  0.0000
  O3     O3        0.358880053529534    0.887022206834032    0.869390563166844  0.0000
  O2     O2        0.123803645182289    0.156987088542562    0.893447137206150  0.0000
  O2     O2        0.621051289397654    0.874142576524745    0.107195573517950  0.0000
  O3     O3        0.861393070380231    0.149558898414822    0.123506513742732  0.0000
  O3     O3        0.501356403532506    0.964328633350336    0.974366856554364  0.0000
  O3     O3        0.982564485202986    0.065147548447000    0.965544467583447  0.0000
  O2     O2        0.141977434039960    0.476990754859575    0.314148147772803  0.0000
  O3     O3        0.371259444323968    0.533738084015539    0.295575097445923  0.0000
  O2     O2        0.861971880657721    0.499982199904515    0.706233050896075  0.0000
  O2     O2        0.639548043366474    0.540520937343306    0.686239973346185  0.0000
  O2     O2        0.266808697452952    0.278453624420210    0.310231726267764  0.0000
  O3     O3        0.238744832337756    0.746810445770390    0.325513366614750  0.0000
  O2     O2        0.743333430310182    0.282439189612606    0.683705322123494  0.0000
  O2     O2        0.758872960242919    0.758857567019435    0.685796056134165  0.0000
  O2     O2        0.157738332643513    0.236991435150003    0.133838191679736  0.0000
  O3     O3        0.340520128464865    0.815868269013329    0.118359130400006  0.0000
  O2     O2        0.835818538091442    0.243870518495951    0.881172319309295  0.0000
  O2     O2        0.655474525556962    0.778690547608516    0.870156663992126  0.0000
  O2     O2        0.858612253915962    0.746107218592465    0.882280463814783  0.0000
  O2     O2        0.633256720459589    0.292678094296606    0.865856778626007  0.0000
  O2     O2        0.131750066260948    0.737472908948485    0.142765305162328  0.0000
  O2     O2        0.367415617823065    0.287947016106567    0.118510651741808  0.0000
  O2     O2        0.624464306355842    0.537573808435316    0.046229288131149  0.0000
  O2     O2        0.859201739285488    0.482447360002372    0.055733505004261  0.0000
  O2     O2        0.360536300033968    0.558310365997634    0.956592674657921  0.0000
  O2     O2        0.127157951730569    0.490718251825121    0.964090223272989  0.0000
  O2     O2        0.729956265557742    0.289809150760350    0.062716828502130  0.0000
  O2     O2        0.753598927531868    0.730448978846568    0.065151069673858  0.0000
  O2     O2        0.256488931197233    0.302942718210653    0.942315663534721  0.0000
  O2     O2        0.230983378901679    0.744640600838909    0.949134345244288  0.0000
