data_c00219.vasp
_audit_creation_method             Generated by GULP
_audit_author_name                 Salvador R. G. Balestra
_symmetry_space_group_name_H-M     'P 1             '
_symmetry_Int_Tables_number        1

loop_
_symmetry_equiv_pos_site_id
_symmetry_equiv_pos_as_xyz
_cell_length_a                       17.1886
_cell_length_b                        7.6173
_cell_length_c                       10.1676
_cell_angle_alpha                   91.2080
_cell_angle_beta                    91.6260
_cell_angle_gamma                   90.3243

loop_
_atom_site_label
_atom_site_type_symbol
_atom_site_fract_x
_atom_site_fract_y
_atom_site_fract_z
_atom_site_charge
  Ge     Ge        0.052090000000021    0.000000000000000    0.372269999999958  0.0000
  Ge     Ge        0.562351877017241    0.019507390337312    0.114812535459111  0.0000
  Ge     Ge        0.172635368338794    0.282234964743125    0.286381121966472  0.0000
  Ge     Ge        0.151937217653181    0.683067523653726    0.972270609756073  0.0000
  Si     Si        0.452856643232046    0.021504270139198    0.364697136192516  0.0000
  Si     Si        0.942948839883836    0.001739591570634    0.617841088352039  0.0000
  Si     Si        0.547970996969411    0.011757150688507    0.630466359613009  0.0000
  Si     Si        0.955104594421098    0.018440069833184    0.102386957845472  0.0000
  Si     Si        0.445053229024231    0.007184580671440    0.872003447263533  0.0000
  Si     Si        0.058228560249940    0.993901129020931    0.857065684172643  0.0000
  Si     Si        0.335893739867100    0.731710589332790    0.282417986468065  0.0000
  Si     Si        0.832062811969263    0.296243284315746    0.720857383690372  0.0000
  Si     Si        0.663901744452910    0.725032029592848    0.731911021799415  0.0000
  Si     Si        0.842330416170133    0.698567791602216    0.720399337394208  0.0000
  Si     Si        0.653887878125837    0.318462878541834    0.731523727862794  0.0000
  Si     Si        0.155260380346654    0.694900676439142    0.280716526209018  0.0000
  Si     Si        0.354018203207013    0.333007151941425    0.289595541135557  0.0000
  Si     Si        0.661202214156860    0.334985898184846    0.038011998567957  0.0000
  Si     Si        0.856470555722828    0.699580492508592    0.028124917197297  0.0000
  Si     Si        0.349888056221076    0.321363189899263    0.980669055589623  0.0000
  Si     Si        0.334464952819706    0.718148079345490    0.973174222293122  0.0000
  Si     Si        0.170932024201640    0.271650692168284    0.976376956388947  0.0000
  Si     Si        0.677987571848097    0.734181712422501    0.037935255795319  0.0000
  Si     Si        0.839861144988622    0.303657556905953    0.029299192736417  0.0000
  O1     O1        0.122768342802365    0.158419172869142    0.392949536566774  0.0000
  O2     O2        0.382782137831654    0.878512297901502    0.368610988224018  0.0000
  O2     O2        0.883550137657906    0.161797551846004    0.638316878615579  0.0000
  O2     O2        0.607776818354437    0.851620855624942    0.649874961010809  0.0000
  O2     O2        0.898548532550985    0.817412180563572    0.636051032844090  0.0000
  O2     O2        0.592728709732186    0.197510012790504    0.649538210434438  0.0000
  O3     O3        0.098944858520952    0.800699762840141    0.375720073332326  0.0000
  O2     O2        0.417843278608761    0.218315888488381    0.368692752387120  0.0000
  O3     O3        0.973824221962321    0.007233233491603    0.472381030025659  0.0000
  O2     O2        0.515003248178484    0.998994208897091    0.482306809578361  0.0000
  O3     O3        0.016437385107730    0.050994074757136    0.216864985432693  0.0000
  O3     O3        0.496190984094720    0.984035163322948    0.231217435888605  0.0000
  O2     O2        0.020135798112440    0.017831014594684    0.712199671866129  0.0000
  O2     O2        0.473995848033193    0.000661087858774    0.723043727706560  0.0000
  O3     O3        0.603992430584178    0.226682142841021    0.125526240073196  0.0000
  O2     O2        0.917670649464582    0.822450121095065    0.109821408626387  0.0000
  O2     O2        0.408262438219575    0.198015036039610    0.901937609193609  0.0000
  O3     O3        0.088315047587581    0.796571864879745    0.872115344971268  0.0000
  O2     O2        0.381282122336703    0.854976945798210    0.888244603932758  0.0000
  O2     O2        0.130862968364139    0.128448251726971    0.876708201015650  0.0000
  O3     O3        0.637427894614148    0.870664495135890    0.131227501539357  0.0000
  O2     O2        0.887048612137746    0.162884559487793    0.112961995045310  0.0000
  O3     O3        0.519005113407956    0.974312428078124    0.964111817254411  0.0000
  O2     O2        0.994218562561525    0.043597460383103    0.962672803648458  0.0000
  O3     O3        0.135986872181018    0.491942156993635    0.289695902723477  0.0000
  O2     O2        0.371864698057753    0.540365293638052    0.312228688816624  0.0000
  O2     O2        0.858263697982639    0.494026815444136    0.687057368350697  0.0000
  O2     O2        0.636335026286461    0.523439064972540    0.707392242065232  0.0000
  O3     O3        0.269344248672561    0.287447178872509    0.337664127754670  0.0000
  O2     O2        0.245884864141784    0.734079678140166    0.322053469477380  0.0000
  O2     O2        0.740627914297614    0.271763383846475    0.684262573409969  0.0000
  O2     O2        0.752734157612159    0.745252432645723    0.685597172105169  0.0000
  O3     O3        0.167060523974907    0.205731199918603    0.124585282247336  0.0000
  O2     O2        0.339991692536168    0.772584694343584    0.127704603921215  0.0000
  O2     O2        0.844649372936966    0.259290857798498    0.874576503134750  0.0000
  O2     O2        0.662064606763419    0.780729521659306    0.885073546288933  0.0000
  O2     O2        0.862878054375311    0.737970838901056    0.873552054981665  0.0000
  O2     O2        0.645579708184307    0.277265316739719    0.885239999839586  0.0000
  O3     O3        0.140657274075945    0.758492992435732    0.131804129461174  0.0000
  O2     O2        0.360428774527572    0.282389450420160    0.135019650904912  0.0000
  O2     O2        0.644315679568561    0.539785801563592    0.061258908025543  0.0000
  O2     O2        0.876583900618162    0.497502036340766    0.057898108023962  0.0000
  O2     O2        0.371018293109140    0.523776472699852    0.953165171425803  0.0000
  O3     O3        0.131521758179188    0.460826819063036    0.962017287159308  0.0000
  O2     O2        0.751263563717750    0.295828171135823    0.074745559710954  0.0000
  O2     O2        0.769782557165687    0.740883671999821    0.072435496233154  0.0000
  O2     O2        0.260902747903751    0.285832279830808    0.935164780333422  0.0000
  O3     O3        0.245904163762867    0.718385536740166    0.923900809057934  0.0000
