data_c00243.vasp
_audit_creation_method             Generated by GULP
_audit_author_name                 Salvador R. G. Balestra
_symmetry_space_group_name_H-M     'P 1             '
_symmetry_Int_Tables_number        1

loop_
_symmetry_equiv_pos_site_id
_symmetry_equiv_pos_as_xyz
_cell_length_a                       17.0427
_cell_length_b                        7.5922
_cell_length_c                       10.4533
_cell_angle_alpha                   89.3755
_cell_angle_beta                    90.6099
_cell_angle_gamma                   90.1824

loop_
_atom_site_label
_atom_site_type_symbol
_atom_site_fract_x
_atom_site_fract_y
_atom_site_fract_z
_atom_site_charge
  Ge     Ge        0.052090000000021    0.000000000000000    0.372269999999958  0.0000
  Ge     Ge        0.561572692472369    0.983918900376387    0.119946718562710  0.0000
  Ge     Ge        0.847940756792125    0.326635053803449    0.703134025051028  0.0000
  Ge     Ge        0.168804917248691    0.721724901938202    0.977599797227185  0.0000
  Si     Si        0.454775382932355    0.986832503550239    0.369166294635046  0.0000
  Si     Si        0.949534292491423    0.017631891815241    0.628713474715029  0.0000
  Si     Si        0.544057983972568    0.996618904603666    0.635827209853298  0.0000
  Si     Si        0.947138968511346    0.995754915413737    0.115302302875547  0.0000
  Si     Si        0.443339791845048    0.996386993588997    0.884097388398291  0.0000
  Si     Si        0.055908445097243    0.004333292300498    0.880333634587969  0.0000
  Si     Si        0.156445186406144    0.309818565488658    0.279362258811517  0.0000
  Si     Si        0.353184457490705    0.676558247983239    0.276620891711130  0.0000
  Si     Si        0.649197273411251    0.690300366761556    0.727796832882096  0.0000
  Si     Si        0.829663952440970    0.735050666736758    0.718434313406890  0.0000
  Si     Si        0.663808759537196    0.283548622876318    0.715651134382173  0.0000
  Si     Si        0.173703626946720    0.720602987468618    0.278510847329761  0.0000
  Si     Si        0.337053860686702    0.273527665037022    0.278097629353544  0.0000
  Si     Si        0.676322438789954    0.265500291068120    0.013258772155607  0.0000
  Si     Si        0.833888810850066    0.711431498745515    0.018516045216889  0.0000
  Si     Si        0.332235011623521    0.277610470054591    0.979783569922830  0.0000
  Si     Si        0.352671572052154    0.673700402561097    0.976029968518239  0.0000
  Si     Si        0.149452595152877    0.314614106993549    0.985519426650495  0.0000
  Si     Si        0.653079783250536    0.663698107010692    0.024088913839447  0.0000
  Si     Si        0.857741624745104    0.315458882858533    0.007525497432092  0.0000
  O3     O3        0.097398193480878    0.204404671997269    0.368399759299751  0.0000
  O2     O2        0.416288062453630    0.793406345251836    0.352531199496297  0.0000
  O3     O3        0.912849056978007    0.210472657174764    0.611036175624801  0.0000
  O2     O2        0.588602748811601    0.810195037388394    0.647975272262859  0.0000
  O2     O2        0.874203787983668    0.888212122952905    0.641622428502542  0.0000
  O2     O2        0.606442213072088    0.156780874253047    0.635607569054613  0.0000
  O3     O3        0.123580504565864    0.839725195071690    0.369979077552316  0.0000
  O2     O2        0.387133141407017    0.134744933026442    0.360306928521175  0.0000
  O3     O3        0.004315364085308    0.967804791053086    0.514025843016177  0.0000
  O2     O2        0.495511678426026    0.998804143032378    0.505807390007950  0.0000
  O3     O3        0.982046332072423    0.976705262370478    0.255208671587848  0.0000
  O3     O3        0.520429070559003    0.020674287591353    0.264811718328794  0.0000
  O2     O2        0.000864552660143    0.003626332679078    0.757882759418621  0.0000
  O2     O2        0.481993414445573    0.021380991843563    0.747559262968725  0.0000
  O3     O3        0.642310856505839    0.120582722457643    0.106079663319143  0.0000
  O2     O2        0.875926401398042    0.855962228084573    0.105424174166429  0.0000
  O2     O2        0.369180324539676    0.128852686042860    0.891767885340425  0.0000
  O3     O3        0.124173707925360    0.861970958371797    0.870146667425183  0.0000
  O2     O2        0.415162288731887    0.793572919122345    0.900486408159343  0.0000
  O2     O2        0.093859206919202    0.198149206709274    0.895257340081124  0.0000
  O3     O3        0.594159133180448    0.768639751065880    0.111526554402996  0.0000
  O2     O2        0.916354873899438    0.195132016364916    0.092431704736889  0.0000
  O3     O3        0.501340551169296    0.050352497046485    0.996772248569740  0.0000
  O2     O2        0.010458036554256    0.945057910148986    0.008839735855336  0.0000
  O2     O2        0.144247035043926    0.518529363471258    0.289037425407870  0.0000
  O2     O2        0.368670548192843    0.470588846637477    0.305950080529293  0.0000
  O3     O3        0.863129274203017    0.548260073617057    0.677279142341334  0.0000
  O2     O2        0.633826515381156    0.484943165557106    0.699961007524829  0.0000
  O2     O2        0.245995967963714    0.259063933413678    0.316830634251464  0.0000
  O2     O2        0.265611900303424    0.728300677663333    0.317921559987374  0.0000
  O3     O3        0.751874263517705    0.273272165387350    0.665933040332332  0.0000
  O2     O2        0.737022637103365    0.742362093030322    0.685257967019315  0.0000
  O2     O2        0.138215245920783    0.251327264741831    0.133048709622078  0.0000
  O2     O2        0.363210990076560    0.717154817470615    0.126268129566350  0.0000
  O3     O3        0.871052272156711    0.274301267267786    0.860166336903752  0.0000
  O2     O2        0.637332122935776    0.728948787807009    0.877767205379632  0.0000
  O2     O2        0.840951844678347    0.764373585015796    0.869812270319021  0.0000
  O2     O2        0.662955928933565    0.220278562879241    0.863752134671916  0.0000
  O3     O3        0.163152827203117    0.790693653614081    0.133958944331119  0.0000
  O2     O2        0.345747790707136    0.227774622627318    0.128796229812223  0.0000
  O2     O2        0.637191947887539    0.455817138343548    0.039439733058535  0.0000
  O2     O2        0.874817717598544    0.520659187962426    0.038889838840337  0.0000
  O2     O2        0.371492316601313    0.468154862623150    0.950920476264898  0.0000
  O3     O3        0.126649594567996    0.515288872691798    0.965887564367320  0.0000
  O2     O2        0.768552632905643    0.273547167329734    0.043259883521762  0.0000
  O2     O2        0.743509577470928    0.704875917049727    0.060402163391383  0.0000
  O2     O2        0.240101782792015    0.287545008786922    0.947800047095903  0.0000
  O3     O3        0.265419384394822    0.715422791035256    0.931432230255043  0.0000
