data_c00232.vasp
_audit_creation_method             Generated by GULP
_audit_author_name                 Salvador R. G. Balestra
_symmetry_space_group_name_H-M     'P 1             '
_symmetry_Int_Tables_number        1

loop_
_symmetry_equiv_pos_site_id
_symmetry_equiv_pos_as_xyz
_cell_length_a                       17.1250
_cell_length_b                        7.6078
_cell_length_c                       10.3005
_cell_angle_alpha                   89.8964
_cell_angle_beta                    90.1953
_cell_angle_gamma                   90.2629

loop_
_atom_site_label
_atom_site_type_symbol
_atom_site_fract_x
_atom_site_fract_y
_atom_site_fract_z
_atom_site_charge
  Ge     Ge        0.052090000000021    0.000000000000000    0.372269999999958  0.0000
  Ge     Ge        0.557457737201078    0.019674890183312    0.104643292217333  0.0000
  Ge     Ge        0.336100196060032    0.737752850118297    0.276337780218894  0.0000
  Ge     Ge        0.151300670483023    0.684145062693491    0.968021986276716  0.0000
  Si     Si        0.454393651714728    0.020566495687768    0.363666118822483  0.0000
  Si     Si        0.950776824283767    0.020485357896924    0.635449191426462  0.0000
  Si     Si        0.552617714086582    0.029492545730535    0.619857518185912  0.0000
  Si     Si        0.946034885609307    0.012503583988141    0.120945543807654  0.0000
  Si     Si        0.445309710783690    0.017162896705387    0.860658439301844  0.0000
  Si     Si        0.056713687716285    0.003415146708189    0.884093051840277  0.0000
  Si     Si        0.174716603824403    0.283669932719797    0.272681837714292  0.0000
  Si     Si        0.834731911845927    0.307547608225129    0.711606162155705  0.0000
  Si     Si        0.667734300181861    0.740765707381128    0.720816558553810  0.0000
  Si     Si        0.847356095639279    0.710109505851184    0.713795493811354  0.0000
  Si     Si        0.655178033666209    0.334643516143011    0.718801827564036  0.0000
  Si     Si        0.153633185467095    0.690108673108056    0.276158506437741  0.0000
  Si     Si        0.355122941918238    0.328980242167151    0.274083940493858  0.0000
  Si     Si        0.655442364828537    0.338862487409640    0.020546907149062  0.0000
  Si     Si        0.853820365677551    0.697140274066907    0.016986436978561  0.0000
  Si     Si        0.353019094113566    0.330143911497240    0.972516175703728  0.0000
  Si     Si        0.334184016870489    0.731142609884347    0.965426570687063  0.0000
  Si     Si        0.172755872491817    0.279035036010914    0.971684470904524  0.0000
  Si     Si        0.674414524517217    0.737842247213875    0.022545452893505  0.0000
  Si     Si        0.835494581584798    0.300543541831049    0.015192602283445  0.0000
  O3     O3        0.127578046167612    0.150599831597782    0.360635278997010  0.0000
  O3     O3        0.387215266237783    0.875466186066503    0.377873578745228  0.0000
  O2     O2        0.885872851569074    0.174352805465498    0.626824749054489  0.0000
  O2     O2        0.614317657829027    0.872128799572124    0.638272738847301  0.0000
  O2     O2        0.905768593866604    0.832556448386459    0.631739061136017  0.0000
  O2     O2        0.595837530855210    0.217162919596922    0.634930355188699  0.0000
  O3     O3        0.090172442806801    0.791513303592556    0.360630746304415  0.0000
  O2     O2        0.413919989442790    0.211883461301919    0.359017872066983  0.0000
  O3     O3        0.011928836206798    0.031506263312423    0.522204374577281  0.0000
  O2     O2        0.519499161517397    0.017559914244420    0.474916469061168  0.0000
  O3     O3        0.977084679208508    0.035178503137772    0.264389680644125  0.0000
  O3     O3        0.495862926207990    0.976031389461444    0.228751819737355  0.0000
  O2     O2        0.999476252887921    0.048036387692555    0.767324040540392  0.0000
  O2     O2        0.479175624885157    0.013452609066336    0.715606093443523  0.0000
  O3     O3        0.596580965931936    0.229500994325341    0.107953624734253  0.0000
  O2     O2        0.913027922030643    0.814524672184900    0.100861494295194  0.0000
  O2     O2        0.410418123327328    0.211434796322443    0.887339119920555  0.0000
  O3     O3        0.085730394443219    0.804176632091649    0.877158202126799  0.0000
  O2     O2        0.378885861410004    0.867544597020289    0.872376182496244  0.0000
  O2     O2        0.133554137591422    0.129321596571613    0.882460778408568  0.0000
  O3     O3        0.634294622491937    0.873205729522477    0.115498487689277  0.0000
  O2     O2        0.877869924054136    0.154085723357033    0.099789311772795  0.0000
  O3     O3        0.513242160346177    0.971936423586572    0.959647186572871  0.0000
  O2     O2        0.015311288658659    0.047266758806850    0.020087478904065  0.0000
  O2     O2        0.141113364592373    0.480198781049653    0.287013791600650  0.0000
  O3     O3        0.374087322220639    0.529830501619756    0.297743306356846  0.0000
  O2     O2        0.863072038565775    0.506201918101544    0.680786012668916  0.0000
  O2     O2        0.638963913797204    0.541005404465481    0.695045731881426  0.0000
  O2     O2        0.265847282807913    0.284405444362704    0.313171446095507  0.0000
  O3     O3        0.239952636017996    0.740629415558485    0.323977520452128  0.0000
  O2     O2        0.743372263259094    0.288659741948554    0.675780398110726  0.0000
  O2     O2        0.758172517884131    0.759375196871484    0.678308700392001  0.0000
  O2     O2        0.166953708511161    0.223915392314227    0.122888916927213  0.0000
  O3     O3        0.340235889736878    0.794298044893345    0.113949469480062  0.0000
  O2     O2        0.845152218948829    0.260392619861540    0.862968478081521  0.0000
  O2     O2        0.661865587954415    0.791417719982055    0.871796937294999  0.0000
  O2     O2        0.864968486397786    0.743812851088451    0.865509670361800  0.0000
  O2     O2        0.641568928104744    0.286953566866906    0.869628506281843  0.0000
  O3     O3        0.142448419688089    0.749025945570038    0.127357200727426  0.0000
  O2     O2        0.367811911818770    0.278621759673302    0.122585464402133  0.0000
  O2     O2        0.638488866860279    0.543495950374734    0.043619989684565  0.0000
  O2     O2        0.872794212394790    0.492626084960257    0.044391392620793  0.0000
  O2     O2        0.372303735719742    0.536007561917514    0.952578230682513  0.0000
  O3     O3        0.130967937741596    0.463833298489465    0.948340272599446  0.0000
  O2     O2        0.745115661128581    0.295921818545895    0.055798938529104  0.0000
  O2     O2        0.765783668799056    0.737103502799247    0.057873343207212  0.0000
  O2     O2        0.263569642843116    0.293939896710906    0.932217709501425  0.0000
  O3     O3        0.245683560849960    0.722561930285196    0.918575112301451  0.0000
