data_c00266.vasp
_audit_creation_method             Generated by GULP
_audit_author_name                 Salvador R. G. Balestra
_symmetry_space_group_name_H-M     'P 1             '
_symmetry_Int_Tables_number        1

loop_
_symmetry_equiv_pos_site_id
_symmetry_equiv_pos_as_xyz
_cell_length_a                       17.0904
_cell_length_b                        7.6017
_cell_length_c                       10.3498
_cell_angle_alpha                   90.0434
_cell_angle_beta                    91.1506
_cell_angle_gamma                   89.8823

loop_
_atom_site_label
_atom_site_type_symbol
_atom_site_fract_x
_atom_site_fract_y
_atom_site_fract_z
_atom_site_charge
  Ge     Ge        0.052090000000021    0.000000000000000    0.372269999999958  0.0000
  Ge     Ge        0.552939812758309    0.002846881062889    0.126072761964909  0.0000
  Ge     Ge        0.854442289289725    0.671908532584959    0.033536692874033  0.0000
  Ge     Ge        0.329960117866245    0.719234571432232    0.973257414994658  0.0000
  Si     Si        0.452619834439069    0.011266226946879    0.381513961827430  0.0000
  Si     Si        0.949238932945262    0.995913307818723    0.632154125347693  0.0000
  Si     Si        0.550676872977667    0.014283687758217    0.641006024958804  0.0000
  Si     Si        0.945576066216889    0.996224726395908    0.116813852327865  0.0000
  Si     Si        0.440429542109449    0.000118145472487    0.882755377808034  0.0000
  Si     Si        0.054314864801037    0.992821225122911    0.881482938013912  0.0000
  Si     Si        0.172029322122422    0.281283127319350    0.288869104499058  0.0000
  Si     Si        0.335800900922638    0.726186198031801    0.280813604347954  0.0000
  Si     Si        0.832795707816269    0.286966043159917    0.723792278609743  0.0000
  Si     Si        0.667518984013958    0.724826325888510    0.725485230163290  0.0000
  Si     Si        0.848036367138389    0.690756706875370    0.726179217332101  0.0000
  Si     Si        0.654235081938965    0.320163086792625    0.718219573381737  0.0000
  Si     Si        0.156270367502751    0.686400516077475    0.285196506747484  0.0000
  Si     Si        0.352540556499044    0.319430617148292    0.282333920829588  0.0000
  Si     Si        0.648747234697043    0.320261121843458    0.018756356370768  0.0000
  Si     Si        0.348678286342523    0.315383246603685    0.983236666505671  0.0000
  Si     Si        0.147012387824739    0.676363044369492    0.983426114422260  0.0000
  Si     Si        0.165837422448364    0.276551492050657    0.989692865680985  0.0000
  Si     Si        0.670105965562470    0.718848704344551    0.026679919581232  0.0000
  Si     Si        0.828174868023548    0.271275835263920    0.027926016136014  0.0000
  O3     O3        0.126395323293764    0.154417471506074    0.382077087004625  0.0000
  O2     O2        0.387369705151956    0.859090344460594    0.367014049797473  0.0000
  O2     O2        0.886105351338935    0.152069791660744    0.646363020476495  0.0000
  O2     O2        0.615250102035831    0.858771857389372    0.640420847144753  0.0000
  O2     O2        0.905467311472530    0.808450583729753    0.640577722345216  0.0000
  O2     O2        0.594499442971066    0.202286023654217    0.632746632834156  0.0000
  O3     O3        0.095910726615741    0.795336990314153    0.368072380510814  0.0000
  O2     O2        0.412387109243766    0.203850808498227    0.368202802906211  0.0000
  O3     O3        0.987699837430662    0.013062748520166    0.495182021048147  0.0000
  O2     O2        0.490663237715034    0.993966112292938    0.522927966960307  0.0000
  O3     O3        0.997659447959472    0.052670850341629    0.236629081807737  0.0000
  O3     O3        0.520606091214393    0.988563996018067    0.280703123503129  0.0000
  O2     O2        0.019432610316716    0.011393547877369    0.737871723311298  0.0000
  O2     O2        0.501543230094457    0.000733807972912    0.770035546281116  0.0000
  O3     O3        0.585993388083083    0.213404906132933    0.096543017680848  0.0000
  O3     O3        0.920364997403635    0.793229622251481    0.124784381539102  0.0000
  O2     O2        0.401729040358406    0.193179529283784    0.894603796876452  0.0000
  O2     O2        0.084240729664334    0.792492829430220    0.902754790070774  0.0000
  O3     O3        0.371910433478607    0.858892110234370    0.864676385633941  0.0000
  O2     O2        0.125472140303011    0.131308047348672    0.898211072036265  0.0000
  O3     O3        0.629174156474369    0.856342861531599    0.117240429360648  0.0000
  O2     O2        0.865389473689850    0.110029008488714    0.107755501918071  0.0000
  O3     O3        0.482029453801323    0.940739416047370    0.016237745835044  0.0000
  O2     O2        0.989575738030717    0.040443938100262    0.984605825741879  0.0000
  O2     O2        0.142082650772140    0.480333689352695    0.308695580870235  0.0000
  O2     O2        0.367840405375269    0.527046786646971    0.301609718956586  0.0000
  O2     O2        0.863948642960992    0.484391188857027    0.699277050655267  0.0000
  O2     O2        0.636958778810179    0.526908215285848    0.697221893513094  0.0000
  O2     O2        0.264494520714397    0.272165459976895    0.321098191709760  0.0000
  O2     O2        0.245545527216796    0.737095135030648    0.323855124543663  0.0000
  O2     O2        0.742460361684739    0.274568857913318    0.675424232600852  0.0000
  O2     O2        0.758263788459900    0.738517746733296    0.687500146883699  0.0000
  O2     O2        0.157323892332625    0.221961923746362    0.139574699264924  0.0000
  O3     O3        0.341175333779095    0.782512236970565    0.132681682337157  0.0000
  O2     O2        0.835852726003395    0.241023192677355    0.874650811630513  0.0000
  O2     O2        0.661424785802219    0.776035851170338    0.876031991015632  0.0000
  O3     O3        0.866689495640189    0.732565932910219    0.874418800381068  0.0000
  O2     O2        0.641716166766118    0.269027994550809    0.867346380774606  0.0000
  O2     O2        0.141755908044982    0.732341213575733    0.133850022257296  0.0000
  O2     O2        0.367198792610436    0.267775124928813    0.133351232113001  0.0000
  O2     O2        0.631197375516640    0.526012314818931    0.039629330918316  0.0000
  O3     O3        0.871764484097128    0.451952613539019    0.062332261555089  0.0000
  O3     O3        0.370536623519150    0.513291293572092    0.954371262266971  0.0000
  O2     O2        0.127095908139350    0.468945579044820    0.966061213244425  0.0000
  O2     O2        0.737430690888955    0.278591606329289    0.066558216566318  0.0000
  O3     O3        0.759340058926998    0.712004408256580    0.072623740523252  0.0000
  O2     O2        0.256756887241143    0.283646305332125    0.953649367021163  0.0000
  O3     O3        0.232134659332758    0.713669703157156    0.931911643207571  0.0000
