data_c00261.vasp
_audit_creation_method             Generated by GULP
_audit_author_name                 Salvador R. G. Balestra
_symmetry_space_group_name_H-M     'P 1             '
_symmetry_Int_Tables_number        1

loop_
_symmetry_equiv_pos_site_id
_symmetry_equiv_pos_as_xyz
_cell_length_a                       16.9918
_cell_length_b                        7.5778
_cell_length_c                       10.4589
_cell_angle_alpha                   90.5538
_cell_angle_beta                    90.4046
_cell_angle_gamma                   89.7688

loop_
_atom_site_label
_atom_site_type_symbol
_atom_site_fract_x
_atom_site_fract_y
_atom_site_fract_z
_atom_site_charge
  Ge     Ge        0.052090000000021    0.000000000000000    0.372269999999958  0.0000
  Ge     Ge        0.559900301626600    0.031100758196491    0.129175250459347  0.0000
  Ge     Ge        0.651057447585958    0.358567869502455    0.031182697163099  0.0000
  Ge     Ge        0.171718112044376    0.280273664641541    0.978651031992738  0.0000
  Si     Si        0.455097610157905    0.013095236752331    0.376159209713454  0.0000
  Si     Si        0.948687128791455    0.994595258012172    0.632444336160400  0.0000
  Si     Si        0.547677957642016    0.014123032968750    0.638920761431947  0.0000
  Si     Si        0.950813232425880    0.018109687389729    0.111688690114184  0.0000
  Si     Si        0.447178410458535    0.007065439919148    0.889421887914951  0.0000
  Si     Si        0.060111512257878    0.000358959970066    0.877887937739099  0.0000
  Si     Si        0.174890584200653    0.278247891667057    0.279465819229864  0.0000
  Si     Si        0.337593441048618    0.728569076307596    0.281644850729103  0.0000
  Si     Si        0.830757875571299    0.286497751029320    0.721573718306287  0.0000
  Si     Si        0.666928456109632    0.730320894690208    0.719595590612316  0.0000
  Si     Si        0.847378447913975    0.688708821339527    0.709485319780251  0.0000
  Si     Si        0.650702013645976    0.322727404832399    0.728657180188627  0.0000
  Si     Si        0.156531746739458    0.689574160273211    0.280294306724980  0.0000
  Si     Si        0.354925939975796    0.324694774560078    0.278895955260137  0.0000
  Si     Si        0.858043486982220    0.699019465032562    0.006754819991196  0.0000
  Si     Si        0.356191689957110    0.330529894582930    0.979101287533493  0.0000
  Si     Si        0.151407115694449    0.687729238465595    0.986562121729323  0.0000
  Si     Si        0.334821026150293    0.727220773566172    0.983607262853258  0.0000
  Si     Si        0.676941054306705    0.761228863320212    0.016727336597192  0.0000
  Si     Si        0.835206554647153    0.305222086503256    0.021889764834865  0.0000
  O3     O3        0.125107574401172    0.158127197833920    0.371489583902448  0.0000
  O2     O2        0.386643715968859    0.866467194335442    0.366689692274651  0.0000
  O2     O2        0.881437674470129    0.144589587970418    0.643600392378842  0.0000
  O2     O2        0.613622830319104    0.859628686097811    0.633921095853752  0.0000
  O2     O2        0.905505379860489    0.804175445638858    0.622869498404889  0.0000
  O2     O2        0.589728441146776    0.204480791242322    0.646445594808425  0.0000
  O3     O3        0.096573002922431    0.794183801388256    0.368775537791638  0.0000
  O2     O2        0.418266546835691    0.207849562189817    0.354772409178683  0.0000
  O3     O3        0.000727854244592    0.026553774107726    0.511073416157851  0.0000
  O2     O2        0.494176766443931    0.005448136209788    0.514131586267827  0.0000
  O3     O3        0.985187239346481    0.030997676793827    0.251777646161028  0.0000
  O3     O3        0.521782475592765    0.973818171099507    0.273404885730823  0.0000
  O2     O2        0.005550153403403    0.002659502119883    0.754993382746600  0.0000
  O2     O2        0.489806616411141    0.981276644039658    0.756003157762465  0.0000
  O1     O1        0.584776456852899    0.248813205661642    0.122567555774582  0.0000
  O2     O2        0.918444950021826    0.820651001983731    0.085245699205654  0.0000
  O2     O2        0.419471713445527    0.211553855936857    0.903252526616244  0.0000
  O2     O2        0.095869490612550    0.804563349111772    0.896017764755872  0.0000
  O2     O2        0.372064520400099    0.875799083133819    0.894825845179176  0.0000
  O3     O3        0.130142109531036    0.139071422323907    0.868460558368966  0.0000
  O3     O3        0.648222430441687    0.920029344287106    0.103021795568301  0.0000
  O2     O2        0.880797270717368    0.160553237358259    0.104053611175809  0.0000
  O3     O3        0.501787500992804    0.952984732365349    0.006212868335022  0.0000
  O2     O2        0.014880885688015    0.067107835554842    0.005347179677622  0.0000
  O2     O2        0.144728577833852    0.480348019845795    0.289382849480250  0.0000
  O2     O2        0.369853891954893    0.531139732168332    0.308224176231433  0.0000
  O2     O2        0.863013682809751    0.480947006666724    0.686754410732525  0.0000
  O2     O2        0.634683383699984    0.530768458176731    0.706322551440834  0.0000
  O2     O2        0.267029500375771    0.271678531321057    0.319084758555657  0.0000
  O2     O2        0.245998378033703    0.740865546443729    0.319180718474535  0.0000
  O2     O2        0.739000043019191    0.273513394748375    0.682502788534921  0.0000
  O2     O2        0.757255450960878    0.735609205673483    0.672916811838420  0.0000
  O3     O3        0.165361093633388    0.209275262563612    0.134563325222318  0.0000
  O2     O2        0.347095648067428    0.777455171736917    0.132856254010504  0.0000
  O2     O2        0.836552502690654    0.250230649897803    0.872361298751882  0.0000
  O2     O2        0.664023151493206    0.797994240720005    0.865623194193954  0.0000
  O2     O2        0.866229180313919    0.739731281857990    0.856479656858008  0.0000
  O3     O3        0.638353641109924    0.280251021252782    0.876019117987611  0.0000
  O2     O2        0.139165041357582    0.749530797337969    0.134112231678650  0.0000
  O2     O2        0.366752589897060    0.284045009173003    0.128916936669953  0.0000
  O3     O3        0.632256545808902    0.580328458196813    0.047867543831801  0.0000
  O2     O2        0.878417525134164    0.495427110950218    0.036712226224132  0.0000
  O2     O2        0.375262395671678    0.536880706321146    0.955931036023550  0.0000
  O3     O3        0.129042073701571    0.486578071605625    0.966404813577610  0.0000
  O3     O3        0.747762097298734    0.316629448359287    0.073513569201112  0.0000
  O2     O2        0.769027250397283    0.735218165759409    0.048236866566579  0.0000
  O3     O3        0.269021241283960    0.289580019670763    0.934074804705728  0.0000
  O2     O2        0.242658589210455    0.715940285308856    0.950420601481693  0.0000
