data_c00280.vasp
_audit_creation_method             Generated by GULP
_audit_author_name                 Salvador R. G. Balestra
_symmetry_space_group_name_H-M     'P 1             '
_symmetry_Int_Tables_number        1

loop_
_symmetry_equiv_pos_site_id
_symmetry_equiv_pos_as_xyz
_cell_length_a                       16.9498
_cell_length_b                        7.5466
_cell_length_c                       10.4935
_cell_angle_alpha                   88.7630
_cell_angle_beta                    89.8827
_cell_angle_gamma                   90.4662

loop_
_atom_site_label
_atom_site_type_symbol
_atom_site_fract_x
_atom_site_fract_y
_atom_site_fract_z
_atom_site_charge
  Ge     Ge        0.052090000000021    0.000000000000000    0.372269999999958  0.0000
  Ge     Ge        0.939158833759935    0.006958981475764    0.120892987179791  0.0000
  Ge     Ge        0.444852186741911    0.054324520281146    0.854836544673655  0.0000
  Ge     Ge        0.355472969575622    0.383056726432773    0.952701166641703  0.0000
  Si     Si        0.456314869043295    0.027190469812714    0.348175802655392  0.0000
  Si     Si        0.954208517364111    0.020418504982666    0.633527522561151  0.0000
  Si     Si        0.551565490005416    0.029950471692861    0.606601678483071  0.0000
  Si     Si        0.553646291512418    0.014046068296273    0.095225464250529  0.0000
  Si     Si        0.054153729763041    0.038309261941761    0.887323452084264  0.0000
  Si     Si        0.176910411232492    0.288559582068360    0.260011553854292  0.0000
  Si     Si        0.336398503530974    0.747312705278504    0.267903146448637  0.0000
  Si     Si        0.833524523493046    0.297918112492839    0.710956007501688  0.0000
  Si     Si        0.669723146109386    0.745542329500746    0.703296217168304  0.0000
  Si     Si        0.850538665357334    0.706172622470278    0.710660522813599  0.0000
  Si     Si        0.651409304029142    0.338737929468835    0.701826416338277  0.0000
  Si     Si        0.154482392223932    0.694207312431413    0.279658275111790  0.0000
  Si     Si        0.357008822886005    0.339990963607465    0.254397683179898  0.0000
  Si     Si        0.643174722327909    0.338925317468252    0.996661923871905  0.0000
  Si     Si        0.849421832544732    0.687233407019259    0.007175460145985  0.0000
  Si     Si        0.145631273399466    0.716683291282518    0.986635557435026  0.0000
  Si     Si        0.328436187633651    0.785624966929062    0.972760068410753  0.0000
  Si     Si        0.171022775076262    0.321547679827461    0.962986714780844  0.0000
  Si     Si        0.667923697357553    0.737588838283319    0.000883782558982  0.0000
  Si     Si        0.825406257538254    0.286321260610570    0.006307171968654  0.0000
  O3     O3        0.128029887695118    0.147326820478355    0.340537446280203  0.0000
  O2     O2        0.387333257731647    0.877354440993525    0.356149893288937  0.0000
  O2     O2        0.884980882506095    0.167727283093126    0.625674903273806  0.0000
  O2     O2        0.619717397590864    0.882474400536171    0.618648089086802  0.0000
  O2     O2        0.912708321283530    0.825655079603327    0.629903166803427  0.0000
  O2     O2        0.591850575335489    0.224440845102205    0.617326038059363  0.0000
  O3     O3        0.094786190220857    0.791797844028828    0.370693587260904  0.0000
  O2     O2        0.418127915202459    0.222007942333878    0.336890588625256  0.0000
  O3     O3        0.015386679860557    0.042495372888162    0.520950910497731  0.0000
  O2     O2        0.509858678636196    0.015393378161878    0.471957221043228  0.0000
  O1     O1        0.973709093250629    0.019430851330141    0.271608989302595  0.0000
  O2     O2        0.513129213162800    0.987174477194324    0.230662887522370  0.0000
  O2     O2        0.001770430423681    0.048082029887194    0.762846389154113  0.0000
  O3     O3        0.485169410550871    0.997762498472091    0.712543072133624  0.0000
  O2     O2        0.582375882735404    0.219386200064612    0.078787862125502  0.0000
  O3     O3        0.909784912223742    0.791020637036465    0.093142811035958  0.0000
  O1     O1        0.421575345505389    0.273455792241655    0.860263794724826  0.0000
  O2     O2        0.087881758579663    0.838945690992890    0.903010191575335  0.0000
  O3     O3        0.354692691873570    0.946239735047925    0.883451153718616  0.0000
  O2     O2        0.124577844909270    0.183270653163817    0.875562945019840  0.0000
  O2     O2        0.627751447171845    0.881045349417968    0.089123002671133  0.0000
  O3     O3        0.857823314918261    0.142402902276979    0.102669861588097  0.0000
  O3     O3        0.498126838052130    0.965201734007636    0.979820488664687  0.0000
  O3     O3        0.006186815304757    0.088487210094979    0.011934057544975  0.0000
  O2     O2        0.143339755126330    0.483143369017133    0.290505509379401  0.0000
  O2     O2        0.370303366548337    0.548384603828477    0.280787275791150  0.0000
  O2     O2        0.863855679493104    0.498985183964294    0.684409218672485  0.0000
  O2     O2        0.639583406743325    0.547053388995360    0.673509640829610  0.0000
  O2     O2        0.268869977702477    0.282427559026462    0.297828090563970  0.0000
  O2     O2        0.244957747738840    0.747914391446926    0.310982447193228  0.0000
  O2     O2        0.741378490999635    0.283998661834699    0.673332959830775  0.0000
  O2     O2        0.762208545547630    0.761516367247682    0.668788576926233  0.0000
  O2     O2        0.170838521744014    0.250385784860840    0.109708411094229  0.0000
  O2     O2        0.342988408211697    0.819884423677661    0.122940381535354  0.0000
  O2     O2        0.842217337333105    0.239224127464560    0.858889197066032  0.0000
  O2     O2        0.658517166946213    0.790332091851703    0.851701386786569  0.0000
  O2     O2        0.863974511335555    0.743926688609623    0.859448533079303  0.0000
  O2     O2        0.627373405657576    0.294570400432675    0.848442557639128  0.0000
  O2     O2        0.131041631115816    0.760072975367204    0.135629820655585  0.0000
  O3     O3        0.370647894993086    0.303646953828692    0.107021191670154  0.0000
  O2     O2        0.626959193665529    0.544683662372538    0.023850018809680  0.0000
  O2     O2        0.863955015024897    0.478905656493482    0.030803613004072  0.0000
  O3     O3        0.373630940287599    0.606418614239949    0.937199731497969  0.0000
  O2     O2        0.126761135485500    0.511834634377192    0.957806808394941  0.0000
  O2     O2        0.732162495995712    0.293157558264864    0.031366888072662  0.0000
  O2     O2        0.759070569143557    0.732799839908944    0.041024922208818  0.0000
  O3     O3        0.258714095004788    0.339528159377736    0.910749797904643  0.0000
  O2     O2        0.235783864082819    0.753192019114272    0.950274892686133  0.0000
