data_c00251.vasp
_audit_creation_method             Generated by GULP
_audit_author_name                 Salvador R. G. Balestra
_symmetry_space_group_name_H-M     'P 1             '
_symmetry_Int_Tables_number        1

loop_
_symmetry_equiv_pos_site_id
_symmetry_equiv_pos_as_xyz
_cell_length_a                       17.3355
_cell_length_b                        7.6420
_cell_length_c                       10.0638
_cell_angle_alpha                   90.1387
_cell_angle_beta                    90.3869
_cell_angle_gamma                   90.7601

loop_
_atom_site_label
_atom_site_type_symbol
_atom_site_fract_x
_atom_site_fract_y
_atom_site_fract_z
_atom_site_charge
  Ge     Ge        0.052090000000021    0.000000000000000    0.372269999999958  0.0000
  Ge     Ge        0.555143524851944    0.005372833328051    0.118352064989793  0.0000
  Ge     Ge        0.660718653059714    0.704621540847841    0.728535016264847  0.0000
  Ge     Ge        0.347756546918840    0.338552391910651    0.975017891366812  0.0000
  Si     Si        0.446088718481739    0.020898626809005    0.372045793222600  0.0000
  Si     Si        0.948038616045999    0.000027328252620    0.629929049904003  0.0000
  Si     Si        0.547277651778209    0.993830841011590    0.627059096751891  0.0000
  Si     Si        0.947125395998391    0.013036857741311    0.110506785980832  0.0000
  Si     Si        0.443001918485938    0.025689351693869    0.870721939635036  0.0000
  Si     Si        0.056959249985865    0.007054446613993    0.871695759435314  0.0000
  Si     Si        0.169019285624977    0.292211406552025    0.290322565158178  0.0000
  Si     Si        0.334375882939329    0.727551600140571    0.298182201438857  0.0000
  Si     Si        0.836909607244964    0.293048562234307    0.733027651886487  0.0000
  Si     Si        0.841081147049128    0.695829047367770    0.724475258290440  0.0000
  Si     Si        0.659315743333873    0.288797698768138    0.737410359085134  0.0000
  Si     Si        0.156217508432705    0.694451160635177    0.297953435201084  0.0000
  Si     Si        0.347529550737595    0.327669801208093    0.292287276982416  0.0000
  Si     Si        0.661251216956889    0.312580938855630    0.045005658954827  0.0000
  Si     Si        0.843872257545951    0.701208515102005    0.038217692805639  0.0000
  Si     Si        0.153001645431704    0.703233082840979    0.989663646532421  0.0000
  Si     Si        0.331746914595088    0.742145367021538    0.985762175689770  0.0000
  Si     Si        0.165584007574081    0.301828732913086    0.980046643646946  0.0000
  Si     Si        0.666988497903478    0.715774177911709    0.041754232056210  0.0000
  Si     Si        0.838307958587305    0.306386585401387    0.044741512905456  0.0000
  O3     O3        0.121285446085969    0.164837542373942    0.383321485075211  0.0000
  O2     O2        0.383466963183964    0.862550622007030    0.388856213384565  0.0000
  O2     O2        0.891610059505780    0.161737086253128    0.655559794103616  0.0000
  O3     O3        0.595787393890858    0.818309389683712    0.633893927985682  0.0000
  O2     O2        0.902348961988727    0.816819942443996    0.647672783567075  0.0000
  O2     O2        0.604784609144323    0.156653991705045    0.656118863345466  0.0000
  O3     O3        0.099405939119476    0.803162059161961    0.388237668091366  0.0000
  O2     O2        0.403315087449573    0.207422131443203    0.381502011317231  0.0000
  O3     O3        0.977343083569145    0.014529738343159    0.481019300097377  0.0000
  O2     O2        0.514496720894968    0.013865815779718    0.478600063795057  0.0000
  O3     O3        0.013521226125529    0.023432811706371    0.216166359093646  0.0000
  O3     O3        0.482335695961992    0.993988299018104    0.228940548821432  0.0000
  O2     O2        0.025439637714782    0.006547267232974    0.720922824347835  0.0000
  O2     O2        0.472667245222024    0.991708880750991    0.721722853666076  0.0000
  O3     O3        0.605701700888547    0.200954163694972    0.136709889546993  0.0000
  O2     O2        0.899959333430612    0.829888520609106    0.120445359918413  0.0000
  O3     O3        0.413374539583550    0.222494234456294    0.884480230478562  0.0000
  O2     O2        0.098124199467346    0.822635531880073    0.900198953281992  0.0000
  O2     O2        0.370135687111872    0.899569690762266    0.904318280973211  0.0000
  O2     O2        0.115879966227041    0.169737759034192    0.888905465735818  0.0000
  O3     O3        0.618471941237607    0.834534675377339    0.138480871409968  0.0000
  O2     O2        0.888379293389481    0.173334720901424    0.130875575414426  0.0000
  O3     O3        0.514617525061031    0.982973790830279    0.963324003144680  0.0000
  O2     O2        0.983529747436999    0.030620414818130    0.964609820501883  0.0000
  O2     O2        0.140238640800868    0.488960373376602    0.316090790878972  0.0000
  O2     O2        0.364490673167940    0.531567627740162    0.325070947602118  0.0000
  O2     O2        0.860754109136490    0.492271295379324    0.697090829419421  0.0000
  O3     O3        0.635759312460712    0.486298981277665    0.711856653080127  0.0000
  O2     O2        0.259306704377423    0.279447546186415    0.326329910139656  0.0000
  O2     O2        0.244729409464670    0.741107892043651    0.336509030469044  0.0000
  O2     O2        0.747742334277909    0.258998132288519    0.691549260001075  0.0000
  O3     O3        0.755007900877761    0.733365037146594    0.676043838679078  0.0000
  O2     O2        0.159038223859713    0.244453079873473    0.134123063012076  0.0000
  O2     O2        0.344295343820005    0.773285689203155    0.143043628230609  0.0000
  O2     O2        0.845111796078340    0.260026315542712    0.889668670607491  0.0000
  O3     O3        0.655697210935175    0.776960231903944    0.890428137176031  0.0000
  O2     O2        0.848150520096463    0.737068309853337    0.881220137696703  0.0000
  O2     O2        0.650914978206123    0.243541676527395    0.893607620975102  0.0000
  O2     O2        0.140359746829410    0.749291490908296    0.144397435764527  0.0000
  O3     O3        0.364357923533911    0.288293530403550    0.139298032669725  0.0000
  O2     O2        0.638019551861674    0.514861388903742    0.052230532161214  0.0000
  O2     O2        0.869291774387851    0.503577412352914    0.071267227748120  0.0000
  O3     O3        0.367220072742724    0.557718138790638    0.946486762653201  0.0000
  O2     O2        0.133639208131615    0.498992377874763    0.962120795410295  0.0000
  O2     O2        0.749852646021159    0.288975533836763    0.090379446760619  0.0000
  O2     O2        0.756631642195795    0.730994256682360    0.084554164046259  0.0000
  O3     O3        0.253146024524472    0.293657596459218    0.933373425544661  0.0000
  O2     O2        0.241174446047531    0.741654093978844    0.950484387898705  0.0000
