data_c00216.vasp
_audit_creation_method             Generated by GULP
_audit_author_name                 Salvador R. G. Balestra
_symmetry_space_group_name_H-M     'P 1             '
_symmetry_Int_Tables_number        1

loop_
_symmetry_equiv_pos_site_id
_symmetry_equiv_pos_as_xyz
_cell_length_a                       17.1402
_cell_length_b                        7.6006
_cell_length_c                       10.2483
_cell_angle_alpha                   91.0379
_cell_angle_beta                    91.2284
_cell_angle_gamma                   89.4155

loop_
_atom_site_label
_atom_site_type_symbol
_atom_site_fract_x
_atom_site_fract_y
_atom_site_fract_z
_atom_site_charge
  Ge     Ge        0.052090000000021    0.000000000000000    0.372269999999958  0.0000
  Ge     Ge        0.561361395971993    0.032888204463487    0.139321497230640  0.0000
  Ge     Ge        0.174370262351555    0.279084895844678    0.284534696672258  0.0000
  Ge     Ge        0.653899192063634    0.355884268627158    0.040436734819322  0.0000
  Si     Si        0.457938390316533    0.008081628586839    0.381898190043509  0.0000
  Si     Si        0.947669327728818    0.987487029171430    0.625007476233812  0.0000
  Si     Si        0.551029922525512    0.009302762628619    0.646475498461334  0.0000
  Si     Si        0.952353071814446    0.015449512941811    0.104539510135188  0.0000
  Si     Si        0.445976335062892    0.000994679450272    0.894490541802953  0.0000
  Si     Si        0.059851169918760    0.999771414297468    0.865866983672721  0.0000
  Si     Si        0.340665791061640    0.722107004660418    0.280917803908721  0.0000
  Si     Si        0.832441395980048    0.283559020478342    0.729192669034797  0.0000
  Si     Si        0.669041008885472    0.723315541184693    0.719743512995491  0.0000
  Si     Si        0.848274828494381    0.684622178407007    0.718135145114227  0.0000
  Si     Si        0.654743535130331    0.317993949125463    0.729630458718216  0.0000
  Si     Si        0.160136929840592    0.694632650274977    0.284829651616020  0.0000
  Si     Si        0.356286642671375    0.317395831205545    0.280254421064497  0.0000
  Si     Si        0.857165572461186    0.696423395493742    0.022158388660083  0.0000
  Si     Si        0.349040654290267    0.319580807855018    0.973203355724025  0.0000
  Si     Si        0.154955178206527    0.690569270863649    0.982428108211856  0.0000
  Si     Si        0.335075587548258    0.717200711853448    0.975509007629722  0.0000
  Si     Si        0.169450887830482    0.284608909131259    0.975235720474852  0.0000
  Si     Si        0.677258769205933    0.756697988059133    0.023793573916241  0.0000
  Si     Si        0.835628377480689    0.305036233148471    0.036758217875317  0.0000
  O1     O1        0.122508322253238    0.157449255022764    0.388201340592746  0.0000
  O2     O2        0.391364779519928    0.861034659023842    0.364132332684491  0.0000
  O2     O2        0.884984784459574    0.140181933696637    0.656044729330353  0.0000
  O2     O2        0.615539631677947    0.852885323273253    0.632310626100220  0.0000
  O2     O2        0.906326116174407    0.797874191865891    0.632833746016592  0.0000
  O2     O2        0.593975734596448    0.197229714734898    0.647106502343108  0.0000
  O3     O3        0.101956181934841    0.802022798509392    0.375402909128870  0.0000
  O2     O2        0.423444220801218    0.202081412348346    0.350292925101670  0.0000
  O3     O3        0.977749851981797    0.010030089905206    0.480824034512870  0.0000
  O2     O2        0.488441913147122    0.002712399730929    0.529682870332189  0.0000
  O3     O3        0.012640485830572    0.042632905332096    0.219880009069605  0.0000
  O3     O3        0.530530759171713    0.973253130692735    0.290169268329142  0.0000
  O2     O2        0.024052860737311    0.997825953765409    0.719845427456668  0.0000
  O2     O2        0.503765233183727    0.978769274917075    0.776540635864160  0.0000
  O1     O1        0.587135687621100    0.248754942490609    0.129868932954139  0.0000
  O2     O2        0.914874772734317    0.820527682324300    0.106909435127806  0.0000
  O2     O2        0.407050037207108    0.196152022010471    0.890593422602509  0.0000
  O2     O2        0.097506994983164    0.807748557306891    0.893323476519555  0.0000
  O2     O2        0.378029964643079    0.854443918142703    0.885478255021737  0.0000
  O2     O2        0.123967587642846    0.153590569013450    0.875677642740240  0.0000
  O3     O3        0.647258233061314    0.920597952043448    0.105234256729595  0.0000
  O2     O2        0.883966751239540    0.161389662498066    0.117793933136723  0.0000
  O3     O3        0.491115791178056    0.966746734036283    0.028363046290197  0.0000
  O2     O2        0.992317313715188    0.045602702294236    0.966313186954329  0.0000
  O3     O3        0.144144375748551    0.493213764856552    0.305263647729961  0.0000
  O2     O2        0.370307650158072    0.524372209282809    0.311188331558248  0.0000
  O2     O2        0.864110133198792    0.476911803475337    0.694442641342005  0.0000
  O2     O2        0.638095689856720    0.524189307703502    0.702638855342813  0.0000
  O3     O3        0.272442032300104    0.261222031041429    0.326229276612009  0.0000
  O2     O2        0.250377938473318    0.742285630774971    0.319814327324600  0.0000
  O2     O2        0.742117390576482    0.267787151275511    0.682819088585299  0.0000
  O2     O2        0.759055777803854    0.731297421134387    0.676715654624389  0.0000
  O3     O3        0.161941080425728    0.218670188103010    0.121475323036753  0.0000
  O2     O2        0.349009290643565    0.762899109686485    0.128323047603807  0.0000
  O2     O2        0.833885805590753    0.253216196304517    0.883442897239523  0.0000
  O2     O2        0.664896881763523    0.788793143449682    0.869245357021520  0.0000
  O2     O2        0.866224608507704    0.735230228814524    0.869006173618225  0.0000
  O3     O3        0.643426421341638    0.280820334266456    0.880534558160537  0.0000
  O2     O2        0.143278220122336    0.746627603630720    0.133324355038035  0.0000
  O2     O2        0.363372303405954    0.280274097855070    0.125484702963650  0.0000
  O3     O3        0.633746186203726    0.577619365127162    0.056976324559039  0.0000
  O2     O2        0.878139795033328    0.494510776632954    0.054351151526985  0.0000
  O2     O2        0.368494064565281    0.521741784622776    0.943756946843730  0.0000
  O2     O2        0.135729710054886    0.484028426225078    0.962246585782843  0.0000
  O3     O3        0.749353224262044    0.314624923557393    0.090129751979142  0.0000
  O2     O2        0.768338734026162    0.731885659197142    0.060122011864107  0.0000
  O2     O2        0.259692349244889    0.280181643120165    0.934373137034961  0.0000
  O2     O2        0.243299871129356    0.726309290530698    0.941217120899232  0.0000
