data_c00265.vasp
_audit_creation_method             Generated by GULP
_audit_author_name                 Salvador R. G. Balestra
_symmetry_space_group_name_H-M     'P 1             '
_symmetry_Int_Tables_number        1

loop_
_symmetry_equiv_pos_site_id
_symmetry_equiv_pos_as_xyz
_cell_length_a                       16.9728
_cell_length_b                        7.6050
_cell_length_c                       10.4425
_cell_angle_alpha                   89.8974
_cell_angle_beta                    90.6166
_cell_angle_gamma                   90.2657

loop_
_atom_site_label
_atom_site_type_symbol
_atom_site_fract_x
_atom_site_fract_y
_atom_site_fract_z
_atom_site_charge
  Ge     Ge        0.052090000000021    0.000000000000000    0.372269999999958  0.0000
  Ge     Ge        0.558702696405978    0.974226103878333    0.114520764785120  0.0000
  Ge     Ge        0.829229200344632    0.709971523396389    0.014259001082514  0.0000
  Ge     Ge        0.164816431624377    0.705857823140664    0.972554975837567  0.0000
  Si     Si        0.455239617888424    0.983835282267737    0.364533476372706  0.0000
  Si     Si        0.944882407002981    0.000850401545613    0.627343012849133  0.0000
  Si     Si        0.544762362593094    0.978843019109608    0.631176429638655  0.0000
  Si     Si        0.944005660654077    0.993469557213893    0.116462227731335  0.0000
  Si     Si        0.441325805445206    0.988188419166809    0.878802592401648  0.0000
  Si     Si        0.050324310504482    0.986222544334299    0.879782142011541  0.0000
  Si     Si        0.157075941251328    0.304755163878504    0.277325996500092  0.0000
  Si     Si        0.351758387592057    0.674641179715188    0.267972484468514  0.0000
  Si     Si        0.844767786733226    0.309096862250806    0.704638732691652  0.0000
  Si     Si        0.647992616281004    0.668587172397178    0.717203794590820  0.0000
  Si     Si        0.828192890967353    0.713000083324554    0.708733312340387  0.0000
  Si     Si        0.663867996900980    0.265591995658249    0.711932218277603  0.0000
  Si     Si        0.171631353653429    0.715297786673951    0.273522180366474  0.0000
  Si     Si        0.338494238911913    0.271738073839923    0.271049241932313  0.0000
  Si     Si        0.673912871736891    0.254407233789323    0.009175076007890  0.0000
  Si     Si        0.330418519779150    0.269534690418249    0.972705153130253  0.0000
  Si     Si        0.349398888493197    0.665996441521862    0.967115542613772  0.0000
  Si     Si        0.146493236558362    0.298904231158292    0.983732618423264  0.0000
  Si     Si        0.646129779323217    0.648110491844655    0.017216436458175  0.0000
  Si     Si        0.856232619017924    0.311099649786657    0.002275348030345  0.0000
  O3     O3        0.100284761258472    0.200854812247285    0.370302945605146  0.0000
  O2     O2        0.415140278751801    0.793396645578559    0.342340963991693  0.0000
  O2     O2        0.902008337667891    0.191164586041878    0.617860123277843  0.0000
  O2     O2        0.585573120607889    0.787959223746829    0.640537989661821  0.0000
  O2     O2        0.878019345031250    0.848347594472946    0.622600969800254  0.0000
  O2     O2        0.611762691926382    0.130409386279702    0.628633719510656  0.0000
  O3     O3        0.121100274849189    0.834308482150016    0.365573793139343  0.0000
  O2     O2        0.389962124117532    0.136783451709974    0.353812883936031  0.0000
  O3     O3        0.005264526682003    0.976873542264661    0.515377988835366  0.0000
  O2     O2        0.492836982696071    0.988630879935473    0.504319912989607  0.0000
  O3     O3        0.981228621170933    0.985274265082897    0.255462599384692  0.0000
  O3     O3        0.523802801153073    0.013902145444585    0.264147737223598  0.0000
  O2     O2        0.993362368682837    0.986349745792137    0.759223895994844  0.0000
  O2     O2        0.486082658474193    0.011788450195439    0.747140017060106  0.0000
  O3     O3        0.642574038589239    0.102310612026482    0.097923753320102  0.0000
  O3     O3        0.870000664763077    0.863600347395581    0.113905845351616  0.0000
  O2     O2        0.367238712090752    0.122091316646778    0.882070200740491  0.0000
  O3     O3        0.117746603513951    0.842463520145451    0.866144095447497  0.0000
  O2     O2        0.411306026789091    0.786267366697638    0.890441528446503  0.0000
  O2     O2        0.090072406554395    0.178165258528100    0.896772610908530  0.0000
  O3     O3        0.582595872375775    0.755116917958707    0.095807424061251  0.0000
  O2     O2        0.915988373436599    0.191209866275961    0.083239523563481  0.0000
  O3     O3        0.495065721674415    0.044820308755469    0.997338956856419  0.0000
  O2     O2        0.003808689133953    0.925883696537167    0.007517987922781  0.0000
  O2     O2        0.143384594367632    0.512825381079184    0.284872041024500  0.0000
  O2     O2        0.369218472187013    0.470094307961779    0.296932619765670  0.0000
  O2     O2        0.860487068636578    0.516070807113496    0.682361346992760  0.0000
  O2     O2        0.630741990188818    0.462753041314347    0.690834296989132  0.0000
  O2     O2        0.247549482072337    0.257094100147363    0.311948107703345  0.0000
  O2     O2        0.264147646187174    0.725461925450023    0.311845330041788  0.0000
  O2     O2        0.754615864846808    0.260585884306640    0.667844467148214  0.0000
  O2     O2        0.735643812335641    0.718791569514068    0.670443276518868  0.0000
  O2     O2        0.136782557931642    0.240229158250572    0.132295284981215  0.0000
  O2     O2        0.359857993834517    0.713164405654495    0.117173608653347  0.0000
  O2     O2        0.863542773816548    0.263001778712105    0.852316806831623  0.0000
  O2     O2        0.640243699283596    0.707413571469796    0.867951930479558  0.0000
  O3     O3        0.836358124317440    0.768972871102250    0.855401025342853  0.0000
  O2     O2        0.660391037757383    0.205515515881177    0.859749647270856  0.0000
  O3     O3        0.160147174923300    0.780570112206246    0.128385534224449  0.0000
  O2     O2        0.346020998155510    0.222305574504444    0.121669904945108  0.0000
  O2     O2        0.630078219695930    0.439975029385978    0.034018667191573  0.0000
  O3     O3        0.877527640781554    0.510764451246472    0.029914403662669  0.0000
  O2     O2        0.368520227746383    0.460519353192348    0.942618395143785  0.0000
  O3     O3        0.123132210131775    0.498760894962121    0.963262801088295  0.0000
  O2     O2        0.765995171173991    0.278286782226827    0.041873500777492  0.0000
  O3     O3        0.733562177015706    0.693929249499033    0.064500853705067  0.0000
  O2     O2        0.237390285113156    0.274742019342237    0.943893958109903  0.0000
  O3     O3        0.261273315157183    0.703490747890615    0.923274049423735  0.0000
