data_c00289.vasp
_audit_creation_method             Generated by GULP
_audit_author_name                 Salvador R. G. Balestra
_symmetry_space_group_name_H-M     'P 1             '
_symmetry_Int_Tables_number        1

loop_
_symmetry_equiv_pos_site_id
_symmetry_equiv_pos_as_xyz
_cell_length_a                       17.1750
_cell_length_b                        7.6100
_cell_length_c                       10.2905
_cell_angle_alpha                   90.3388
_cell_angle_beta                    89.6131
_cell_angle_gamma                   89.8242

loop_
_atom_site_label
_atom_site_type_symbol
_atom_site_fract_x
_atom_site_fract_y
_atom_site_fract_z
_atom_site_charge
  Ge     Ge        0.052090000000021    0.000000000000000    0.372269999999958  0.0000
  Ge     Ge        0.942230198194381    0.993164165362073    0.119917222254384  0.0000
  Ge     Ge        0.056288790354143    0.991086927456555    0.875390441323177  0.0000
  Ge     Ge        0.175734084566590    0.708919955208970    0.959287702859877  0.0000
  Si     Si        0.453158092825013    0.981741733037474    0.352467465497498  0.0000
  Si     Si        0.946229656587520    0.996449320298831    0.627590517281904  0.0000
  Si     Si        0.548998928733814    0.982362283350742    0.614060449251840  0.0000
  Si     Si        0.558506904942928    0.988867307706545    0.101850851339361  0.0000
  Si     Si        0.446568624783432    0.978742281073854    0.867230235573812  0.0000
  Si     Si        0.158158606519832    0.302181827020901    0.265723391016792  0.0000
  Si     Si        0.350755912828778    0.671846739812332    0.266407279313686  0.0000
  Si     Si        0.842773856724547    0.304200417440780    0.697820645610253  0.0000
  Si     Si        0.651416894539344    0.676206924060444    0.702238933488271  0.0000
  Si     Si        0.831571028415875    0.708146628970455    0.700797120154642  0.0000
  Si     Si        0.663992634138326    0.272909885045853    0.702448457426370  0.0000
  Si     Si        0.173290651129278    0.714299654391037    0.264446974204163  0.0000
  Si     Si        0.337656571228886    0.269557205425687    0.268147324405235  0.0000
  Si     Si        0.668645375634698    0.273124459943727    0.006497901934742  0.0000
  Si     Si        0.829066734549493    0.709622071017366    0.003345120277271  0.0000
  Si     Si        0.336499798205724    0.264941378965847    0.965222816111209  0.0000
  Si     Si        0.356568452557912    0.658854477808277    0.959886635544392  0.0000
  Si     Si        0.154597717159801    0.303884462984498    0.968393220124773  0.0000
  Si     Si        0.648973591497809    0.670223042002331    0.004068331078929  0.0000
  Si     Si        0.848051763058869    0.310391202684397    0.001349863080907  0.0000
  O3     O3        0.099083338803269    0.200317960723970    0.356837131286775  0.0000
  O2     O2        0.411744086292251    0.792149342464809    0.343539574685184  0.0000
  O2     O2        0.900944497007402    0.183400552275609    0.612112541381430  0.0000
  O2     O2        0.594069552459855    0.796092089318559    0.618064976179361  0.0000
  O2     O2        0.882779005261731    0.838912241002360    0.612825133128187  0.0000
  O2     O2        0.611840184368876    0.139070583528782    0.620448717453585  0.0000
  O3     O3        0.118544460771575    0.830889388946553    0.355315259075703  0.0000
  O2     O2        0.387601119563390    0.134181629546822    0.352670806258004  0.0000
  O3     O3        0.017339077985642    0.983608192366988    0.529885549295954  0.0000
  O2     O2        0.501941494058388    0.994633770352682    0.482433999656966  0.0000
  O1     O1        0.971325965844566    0.987637114387418    0.277976799224835  0.0000
  O2     O2        0.513111145853768    0.010543225735017    0.235469987485548  0.0000
  O3     O3        0.980760765087554    0.980860714173218    0.770849226969887  0.0000
  O2     O2        0.486532027564211    0.001370380061723    0.728951255539671  0.0000
  O2     O2        0.627782660785625    0.130893044658563    0.097936739827573  0.0000
  O3     O3        0.866886786484532    0.846967806675362    0.098317809271350  0.0000
  O2     O2        0.373309222429075    0.112206022927790    0.875942228626851  0.0000
  O1     O1        0.129326794115219    0.840701177401847    0.852576585481570  0.0000
  O2     O2        0.419095223664648    0.777383831766371    0.883723082333532  0.0000
  O3     O3        0.099488831090168    0.196148954963119    0.874822697760035  0.0000
  O2     O2        0.592517691775632    0.790985581704449    0.091815218974522  0.0000
  O3     O3        0.909792346381933    0.202891572925317    0.081405689831870  0.0000
  O2     O2        0.504022529171932    0.034554060531112    0.981419321467481  0.0000
  O1     O1        0.019737923606750    0.937311826495676    0.026029337236703  0.0000
  O2     O2        0.145579556983653    0.511464554715099    0.272439711133585  0.0000
  O2     O2        0.367016044903278    0.467393984887537    0.297427648350184  0.0000
  O2     O2        0.859218857163386    0.508947265796955    0.669293465399624  0.0000
  O2     O2        0.635982060680002    0.471288710456087    0.672440274635086  0.0000
  O2     O2        0.246667379778169    0.253442361668324    0.305658013834790  0.0000
  O2     O2        0.263326768032264    0.723927132168624    0.310244291323409  0.0000
  O2     O2        0.754344365028103    0.254517180201038    0.660762644866918  0.0000
  O2     O2        0.740355889436863    0.726542068194440    0.667437886468165  0.0000
  O2     O2        0.141175171093724    0.237884383050148    0.117564353603498  0.0000
  O2     O2        0.360141507043937    0.705315504495591    0.112955007777293  0.0000
  O2     O2        0.858415789588668    0.264447674456357    0.848842126666956  0.0000
  O2     O2        0.633226476189761    0.714945160051124    0.853528750232691  0.0000
  O2     O2        0.843864765621693    0.757165725994866    0.852110886822738  0.0000
  O2     O2        0.656413510311456    0.227839294190650    0.854742156189066  0.0000
  O3     O3        0.168332531171502    0.784112897965064    0.118325792201585  0.0000
  O2     O2        0.348191478634473    0.220043139757199    0.116626265392818  0.0000
  O2     O2        0.632326562126921    0.466215199037296    0.034833959520216  0.0000
  O2     O2        0.864448929618369    0.515923276928352    0.027291490834324  0.0000
  O2     O2        0.376489650636628    0.453032602524114    0.935116222455224  0.0000
  O3     O3        0.132803142787626    0.504938469662893    0.953969212127808  0.0000
  O2     O2        0.759442228185625    0.266373337457001    0.042476906714165  0.0000
  O2     O2        0.737765321998767    0.712334037994633    0.036054758933619  0.0000
  O2     O2        0.245545641346308    0.275627528886812    0.932069672314022  0.0000
  O3     O3        0.271433125887980    0.699688607199067    0.909269525597412  0.0000
