data_c00241.vasp
_audit_creation_method             Generated by GULP
_audit_author_name                 Salvador R. G. Balestra
_symmetry_space_group_name_H-M     'P 1             '
_symmetry_Int_Tables_number        1

loop_
_symmetry_equiv_pos_site_id
_symmetry_equiv_pos_as_xyz
_cell_length_a                       16.9562
_cell_length_b                        7.5864
_cell_length_c                       10.4870
_cell_angle_alpha                   89.1124
_cell_angle_beta                    90.5376
_cell_angle_gamma                   90.6884

loop_
_atom_site_label
_atom_site_type_symbol
_atom_site_fract_x
_atom_site_fract_y
_atom_site_fract_z
_atom_site_charge
  Ge     Ge        0.052090000000021    0.000000000000000    0.372269999999958  0.0000
  Ge     Ge        0.556153721224907    0.974402051273320    0.106619532497818  0.0000
  Ge     Ge        0.849833745551521    0.324992807122463    0.706773038829301  0.0000
  Ge     Ge        0.824216376788287    0.719056186060193    0.022167501182114  0.0000
  Si     Si        0.456616116098326    0.991059519842271    0.359463425068028  0.0000
  Si     Si        0.950342576173064    0.014682816842870    0.629344249771611  0.0000
  Si     Si        0.543997869509907    0.991312311566225    0.627320725121564  0.0000
  Si     Si        0.938128945950720    0.002211266193507    0.121988482597633  0.0000
  Si     Si        0.437988522824931    0.002265792521385    0.870956595723249  0.0000
  Si     Si        0.048295258268913    0.995853319764764    0.887874527669963  0.0000
  Si     Si        0.157471025329489    0.309941717079393    0.281478188908352  0.0000
  Si     Si        0.353477264012574    0.683088978586848    0.263439237889090  0.0000
  Si     Si        0.647232068607362    0.680440601647652    0.718254629777405  0.0000
  Si     Si        0.827081604106816    0.737885494351225    0.719841838539016  0.0000
  Si     Si        0.665260340199763    0.278179916037345    0.704187411722168  0.0000
  Si     Si        0.171936015145759    0.717839932164586    0.274469313460553  0.0000
  Si     Si        0.338861926725653    0.277663509936987    0.266686971499533  0.0000
  Si     Si        0.672468675217959    0.257539821822410    0.001629536556447  0.0000
  Si     Si        0.328288079859099    0.281454386847935    0.969625470447531  0.0000
  Si     Si        0.162613138326084    0.713357771515317    0.979593546756791  0.0000
  Si     Si        0.345294563262466    0.681935069236398    0.967488366131426  0.0000
  Si     Si        0.145998464137017    0.309923665873421    0.986645923768520  0.0000
  Si     Si        0.641841309731645    0.647057838658039    0.016713557035124  0.0000
  Si     Si        0.855432321597134    0.321147165533932    0.006662557044920  0.0000
  O3     O3        0.099862601126862    0.202463452994846    0.372463083346471  0.0000
  O2     O2        0.415834880037102    0.799379500247591    0.341417574332547  0.0000
  O3     O3        0.916779204085655    0.211196107056979    0.617086706527104  0.0000
  O2     O2        0.585066344521652    0.801690153665018    0.642537194954437  0.0000
  O2     O2        0.873600524668004    0.886422605441836    0.638415254489086  0.0000
  O2     O2        0.610064988258579    0.145665554006739    0.624395527896421  0.0000
  O3     O3        0.124417075516708    0.842321011869831    0.363794436667441  0.0000
  O2     O2        0.391272742983625    0.143423499536270    0.348507206435282  0.0000
  O3     O3        0.002881157441702    0.965466318562802    0.511554406830321  0.0000
  O2     O2        0.495557329839801    0.996968774615479    0.497292404333765  0.0000
  O3     O3        0.983645865990051    0.982542374834419    0.253047129362033  0.0000
  O3     O3        0.523288453278872    0.021151866676703    0.255506768914929  0.0000
  O2     O2        0.005359427652152    0.989021651338813    0.753547128139139  0.0000
  O2     O2        0.482448654641015    0.023924405249245    0.738914715222953  0.0000
  O3     O3        0.642209077220263    0.096951013628124    0.085586102889565  0.0000
  O3     O3        0.864269034369819    0.869547614047673    0.124792395998763  0.0000
  O2     O2        0.367745158325089    0.144545642001331    0.875984355595780  0.0000
  O2     O2        0.116871183239875    0.849871610479630    0.888862939134965  0.0000
  O2     O2        0.401219161685549    0.804244696426506    0.880166982601088  0.0000
  O2     O2        0.085157359376080    0.191814426035751    0.906095207658494  0.0000
  O3     O3        0.577170134117561    0.753174469301554    0.092511197964311  0.0000
  O2     O2        0.908829587075526    0.202627352793518    0.101573100463589  0.0000
  O3     O3        0.493836191350941    0.047675265491942    0.988526910516643  0.0000
  O2     O2        0.989862516403620    0.942102773898794    0.001698568875280  0.0000
  O2     O2        0.145660476375634    0.516483765127110    0.302146615322552  0.0000
  O2     O2        0.368049023215325    0.477270229339531    0.293038789466527  0.0000
  O3     O3        0.865469632909166    0.549371282034492    0.696429860970550  0.0000
  O2     O2        0.630634820321940    0.475561462572926    0.687954305606030  0.0000
  O2     O2        0.248092615226907    0.256508638868436    0.308273500475170  0.0000
  O2     O2        0.265387922806044    0.736940684771942    0.300868364614284  0.0000
  O3     O3        0.754503990510940    0.277048346015499    0.656989830919586  0.0000
  O2     O2        0.735537440448128    0.731034736258164    0.673663600234914  0.0000
  O2     O2        0.134724979188640    0.259772441668229    0.135597376811291  0.0000
  O2     O2        0.367628106661227    0.725048093651613    0.113895111330689  0.0000
  O3     O3        0.868801941434937    0.260726960392573    0.862826208543190  0.0000
  O2     O2        0.638558276004069    0.713299352183390    0.868739212499536  0.0000
  O3     O3        0.828411083733353    0.792472651803447    0.866186048280431  0.0000
  O2     O2        0.665331869355922    0.214020619737981    0.851671096552336  0.0000
  O2     O2        0.153567274145891    0.768782275267244    0.126720591399330  0.0000
  O2     O2        0.346870841313627    0.233569302168380    0.117400123110495  0.0000
  O2     O2        0.624149485486182    0.437369146987429    0.027716256554248  0.0000
  O3     O3        0.876126804034168    0.523326769293535    0.028860878668535  0.0000
  O2     O2        0.361259000220918    0.478014289399039    0.938002400228552  0.0000
  O2     O2        0.127938703111202    0.515794027786276    0.960482841346288  0.0000
  O2     O2        0.762946814323461    0.296298074921265    0.037577284213653  0.0000
  O3     O3        0.728261540465459    0.690766479159034    0.070696424244251  0.0000
  O2     O2        0.234824164094573    0.270895821465976    0.944856969923253  0.0000
  O2     O2        0.253931411508138    0.722758847786625    0.940769404770206  0.0000
