data_c00206.vasp
_audit_creation_method             Generated by GULP
_audit_author_name                 Salvador R. G. Balestra
_symmetry_space_group_name_H-M     'P 1             '
_symmetry_Int_Tables_number        1

loop_
_symmetry_equiv_pos_site_id
_symmetry_equiv_pos_as_xyz
_cell_length_a                       16.9816
_cell_length_b                        7.5582
_cell_length_c                       10.4703
_cell_angle_alpha                   90.2895
_cell_angle_beta                    90.7789
_cell_angle_gamma                   89.8305

loop_
_atom_site_label
_atom_site_type_symbol
_atom_site_fract_x
_atom_site_fract_y
_atom_site_fract_z
_atom_site_charge
  Ge     Ge        0.052090000000021    0.000000000000000    0.372269999999958  0.0000
  Ge     Ge        0.559754017159202    0.010892567876305    0.134757178248484  0.0000
  Ge     Ge        0.059766127616029    0.989501542104267    0.875979005509920  0.0000
  Ge     Ge        0.861557439067248    0.670786566841536    0.031637810508535  0.0000
  Si     Si        0.455299857527153    0.014140808491582    0.386516065042447  0.0000
  Si     Si        0.949704616085156    0.991557159089516    0.628150963653897  0.0000
  Si     Si        0.548374062752192    0.010392535601972    0.649080925031592  0.0000
  Si     Si        0.950668097321193    0.999168147079111    0.115737306700542  0.0000
  Si     Si        0.445120737544178    0.999949794373873    0.896170259347785  0.0000
  Si     Si        0.175246713422180    0.275768165366503    0.290064121564929  0.0000
  Si     Si        0.336524217682135    0.730242521139451    0.287499445354202  0.0000
  Si     Si        0.831483205275485    0.279200411871190    0.729426992652052  0.0000
  Si     Si        0.669159051745674    0.727014818605363    0.736581412825071  0.0000
  Si     Si        0.850549377869091    0.685692275554932    0.728777956108288  0.0000
  Si     Si        0.651848562971190    0.319030694227943    0.733943172641866  0.0000
  Si     Si        0.155391908720671    0.685468634945918    0.285593917060276  0.0000
  Si     Si        0.357075927495232    0.325510958864401    0.292410049391842  0.0000
  Si     Si        0.651408645426811    0.330823505712176    0.030577080343041  0.0000
  Si     Si        0.357429352022722    0.322561484752252    0.996881294050893  0.0000
  Si     Si        0.151181242007020    0.670664026923296    0.990921505353110  0.0000
  Si     Si        0.333047243508163    0.720422700966842    0.989081593333858  0.0000
  Si     Si        0.174847261450574    0.266840280862111    0.996090322626487  0.0000
  Si     Si        0.676114134289035    0.729316349765517    0.033575779798287  0.0000
  Si     Si        0.831957293012159    0.270189220520526    0.029721992231238  0.0000
  O3     O3        0.128022367456323    0.152745151061108    0.384233498187528  0.0000
  O2     O2        0.385704942011002    0.870360515334402    0.370412436185129  0.0000
  O2     O2        0.883986000297353    0.142519201968383    0.650742037598215  0.0000
  O2     O2        0.616339102856844    0.860521823351950    0.653077340341435  0.0000
  O2     O2        0.908995525722761    0.799326043616051    0.641510931215645  0.0000
  O2     O2        0.589200101358105    0.203504290695604    0.652921417972455  0.0000
  O3     O3        0.094826726642475    0.792114750408042    0.371116712995053  0.0000
  O2     O2        0.417365655551861    0.210701947204246    0.377711056270547  0.0000
  O3     O3        0.982771132424649    0.013265174913766    0.488198703607288  0.0000
  O2     O2        0.496984224881596    0.990197028813083    0.522186325549907  0.0000
  O3     O3        0.001858061644110    0.056035822597217    0.235084404597015  0.0000
  O3     O3        0.520941436508024    0.984009022310381    0.282131908597912  0.0000
  O3     O3        0.024163299566312    0.010240797027353    0.723290641689454  0.0000
  O2     O2        0.488795830977838    0.982934502278302    0.763824206279857  0.0000
  O3     O3        0.590830247121044    0.226279534442811    0.115095933092290  0.0000
  O3     O3        0.929289376866146    0.792068248759947    0.118982847544632  0.0000
  O2     O2        0.415205734821498    0.202360521705386    0.912988701923911  0.0000
  O3     O3        0.091113593895643    0.773340449045514    0.900933013386667  0.0000
  O2     O2        0.371434542432170    0.864197844626931    0.897235521893261  0.0000
  O3     O3        0.139356199381402    0.129660263344662    0.897377914847796  0.0000
  O3     O3        0.640221771913145    0.872141742788443    0.126222557532857  0.0000
  O2     O2        0.867628703418768    0.107393175392254    0.109275234684415  0.0000
  O3     O3        0.498970414684245    0.940290372806330    0.013345314800073  0.0000
  O3     O3        0.992009744121874    0.054184251046779    0.985154424452124  0.0000
  O2     O2        0.145401286232752    0.477039383058216    0.307122995229721  0.0000
  O2     O2        0.368153127144399    0.533483244054294    0.320707083225015  0.0000
  O2     O2        0.863387761549748    0.476724855637102    0.703088136544733  0.0000
  O2     O2        0.637448077972784    0.527832655690918    0.712838668765012  0.0000
  O2     O2        0.268238036995711    0.267493014113102    0.321975243112830  0.0000
  O2     O2        0.244528998213066    0.745060027000158    0.321491334286613  0.0000
  O2     O2        0.739652695494513    0.267219306796748    0.687910026935422  0.0000
  O2     O2        0.760233141979150    0.737803406332355    0.695348778407319  0.0000
  O2     O2        0.161201508715835    0.209952216889447    0.143496429697795  0.0000
  O2     O2        0.346913455303237    0.771672850402834    0.137752493155827  0.0000
  O2     O2        0.837678489566883    0.233590737575514    0.878235801240786  0.0000
  O2     O2        0.665804867535405    0.784660128640836    0.884652996479247  0.0000
  O3     O3        0.874271962357252    0.729908183764377    0.873494511897523  0.0000
  O2     O2        0.639973996388986    0.271522812406576    0.882406121579104  0.0000
  O2     O2        0.136339298964983    0.733302716880754    0.137353838457345  0.0000
  O2     O2        0.378334743817477    0.283713396501878    0.145255351012707  0.0000
  O2     O2        0.634392538411477    0.538321085830422    0.048945869596852  0.0000
  O3     O3        0.879036266656955    0.449653023596096    0.058814996979478  0.0000
  O2     O2        0.371794498042539    0.527674790214925    0.963616897559619  0.0000
  O2     O2        0.136688796966657    0.461298484364870    0.975643399323482  0.0000
  O2     O2        0.741539260750092    0.289312633033695    0.071190485921810  0.0000
  O3     O3        0.766636070744667    0.713522854559263    0.072869266197882  0.0000
  O2     O2        0.267503389863880    0.273909794317261    0.968817400110209  0.0000
  O2     O2        0.240750964719525    0.716781835943436    0.955130026167025  0.0000
