data_c00343.vasp
_audit_creation_method             Generated by GULP
_audit_author_name                 Salvador R. G. Balestra
_symmetry_space_group_name_H-M     'P 1             '
_symmetry_Int_Tables_number        1

loop_
_symmetry_equiv_pos_site_id
_symmetry_equiv_pos_as_xyz
_cell_length_a                       17.0326
_cell_length_b                        7.5808
_cell_length_c                       10.3370
_cell_angle_alpha                   90.4364
_cell_angle_beta                    89.9700
_cell_angle_gamma                   89.2871

loop_
_atom_site_label
_atom_site_type_symbol
_atom_site_fract_x
_atom_site_fract_y
_atom_site_fract_z
_atom_site_charge
  Ge     Ge        0.052090000000021    0.000000000000000    0.372269999999958  0.0000
  Ge     Ge        0.945670300123964    0.000899842467360    0.106871889705385  0.0000
  Ge     Ge        0.639947904133999    0.349068556890902    0.029468565943540  0.0000
  Ge     Ge        0.671340261276692    0.756820219021507    0.022496264537462  0.0000
  Si     Si        0.452639639186694    0.004441711097672    0.374232095578677  0.0000
  Si     Si        0.951789141121847    0.982415425004340    0.633105382151366  0.0000
  Si     Si        0.552794765948767    0.006960271113915    0.631725458890892  0.0000
  Si     Si        0.554259005904100    0.030403680033994    0.125335858158834  0.0000
  Si     Si        0.448082735398118    0.996467356535061    0.883087567305693  0.0000
  Si     Si        0.060055143170719    0.002774870596917    0.870425917353324  0.0000
  Si     Si        0.170871369157633    0.280008782721575    0.283232464024601  0.0000
  Si     Si        0.338504642367299    0.717751225487155    0.282667814270996  0.0000
  Si     Si        0.831503884316113    0.273460770103818    0.733445443582235  0.0000
  Si     Si        0.671281919714380    0.723551431837483    0.716259971204561  0.0000
  Si     Si        0.849826622162324    0.676406464357757    0.726293752071829  0.0000
  Si     Si        0.653008973360375    0.314805475597962    0.724655702056721  0.0000
  Si     Si        0.157306832852427    0.687423341230943    0.287099026939632  0.0000
  Si     Si        0.352590758272082    0.313414115169558    0.280458942132371  0.0000
  Si     Si        0.852629723218694    0.674881286697273    0.029735451137048  0.0000
  Si     Si        0.351962654074824    0.313262697884886    0.980840631929509  0.0000
  Si     Si        0.154336819138897    0.689700809223930    0.987522560259995  0.0000
  Si     Si        0.336034212749161    0.715256506920994    0.981032697079454  0.0000
  Si     Si        0.169601396257923    0.284242795758227    0.983619145854789  0.0000
  Si     Si        0.822847330214187    0.283601541756960    0.036004875812683  0.0000
  O3     O3        0.125385638460457    0.157046276317350    0.379765721249908  0.0000
  O2     O2        0.387914412322333    0.851024770154675    0.370449491399242  0.0000
  O2     O2        0.885714341336691    0.130835610861970    0.661358542734256  0.0000
  O2     O2        0.618879207872586    0.852149454610753    0.626525441681901  0.0000
  O2     O2        0.913674395489308    0.789230447195078    0.648786368346946  0.0000
  O2     O2        0.593778372254491    0.198013894347007    0.638154212079872  0.0000
  O3     O3        0.098308406090844    0.795616689232937    0.376376510336853  0.0000
  O2     O2        0.409910371799138    0.195172458953707    0.367758435016060  0.0000
  O3     O3        0.981125088124311    0.008481682564949    0.489113796038939  0.0000
  O2     O2        0.501867084621406    0.993519308777910    0.503521117105347  0.0000
  O1     O1        0.005616846694894    0.046036837446057    0.231053744645400  0.0000
  O2     O2        0.511363961059944    0.975136674734890    0.255205060697909  0.0000
  O2     O2        0.029016327884872    0.000733454749699    0.723333047420535  0.0000
  O2     O2        0.493166534227615    0.977018997141447    0.749312174951986  0.0000
  O3     O3        0.570377694642983    0.236920046290579    0.117564717041271  0.0000
  O3     O3        0.917065477715711    0.782685984944461    0.107005764352734  0.0000
  O2     O2        0.409042328272518    0.192132413013747    0.893270028120211  0.0000
  O2     O2        0.095297648077901    0.808776557374717    0.903908762903384  0.0000
  O2     O2        0.380062971015219    0.850518491252709    0.888919649821472  0.0000
  O2     O2        0.126803851294411    0.151050507243406    0.886634606378797  0.0000
  O3     O3        0.637587738608172    0.930993884848201    0.114378487744365  0.0000
  O3     O3        0.862561652402376    0.133475392831412    0.119304261205381  0.0000
  O2     O2        0.506981934134271    0.957268454408833    0.000392099679197  0.0000
  O3     O3        0.988578773320029    0.054017060149048    0.961550687481423  0.0000
  O2     O2        0.143129564658580    0.481241663504867    0.307000812680564  0.0000
  O2     O2        0.367923695791199    0.518577306599260    0.310540936219984  0.0000
  O2     O2        0.867056525186677    0.467451791429745    0.707556289530007  0.0000
  O2     O2        0.637786250678747    0.524855890521538    0.707602373437111  0.0000
  O2     O2        0.263485192861362    0.263565480577799    0.311574305179264  0.0000
  O2     O2        0.247072325489868    0.737235254864994    0.319735015231041  0.0000
  O2     O2        0.742191548598688    0.267367669464844    0.680340295555509  0.0000
  O2     O2        0.762729013084396    0.721763067040862    0.672284501416530  0.0000
  O2     O2        0.155210259583219    0.227754752836901    0.132409932666639  0.0000
  O2     O2        0.349698038991400    0.763278430441380    0.131570756070418  0.0000
  O2     O2        0.825966665259229    0.228571391104538    0.884414732018531  0.0000
  O3     O3        0.667910926240201    0.801873922909186    0.859508356813595  0.0000
  O2     O2        0.856021926582654    0.726707150864185    0.877383905939084  0.0000
  O3     O3        0.636298361958478    0.268708086729766    0.872167262687166  0.0000
  O2     O2        0.139037965806571    0.739605119249984    0.137693660422035  0.0000
  O2     O2        0.371154643087082    0.269960107864056    0.130194612726691  0.0000
  O1     O1        0.618973744403710    0.567107488611841    0.044516071747503  0.0000
  O2     O2        0.869800157140735    0.467771063060629    0.050995445020331  0.0000
  O2     O2        0.368629625876305    0.517842197400037    0.951519810131141  0.0000
  O2     O2        0.137210552245264    0.483396833198549    0.961831910285236  0.0000
  O3     O3        0.734702459794886    0.313058576591566    0.082910816959757  0.0000
  O3     O3        0.765759106926206    0.723378169578603    0.076809574631445  0.0000
  O2     O2        0.261623845947892    0.272399427901148    0.950703331182690  0.0000
  O2     O2        0.243842328529227    0.729258304461684    0.949068173549717  0.0000
