data_c00398.vasp
_audit_creation_method             Generated by GULP
_audit_author_name                 Salvador R. G. Balestra
_symmetry_space_group_name_H-M     'P 1             '
_symmetry_Int_Tables_number        1

loop_
_symmetry_equiv_pos_site_id
_symmetry_equiv_pos_as_xyz
_cell_length_a                       17.0987
_cell_length_b                        7.6237
_cell_length_c                       10.3379
_cell_angle_alpha                   89.2998
_cell_angle_beta                    91.1649
_cell_angle_gamma                   90.7004

loop_
_atom_site_label
_atom_site_type_symbol
_atom_site_fract_x
_atom_site_fract_y
_atom_site_fract_z
_atom_site_charge
  Ge     Ge        0.052090000000021    0.000000000000000    0.372269999999958  0.0000
  Ge     Ge        0.435802737272422    0.038043645068443    0.858884153611057  0.0000
  Ge     Ge        0.830796275308086    0.307149767617194    0.703505828082662  0.0000
  Ge     Ge        0.165627416260104    0.298159610737344    0.967056310712675  0.0000
  Si     Si        0.451752372095220    0.029515119959774    0.345206835089024  0.0000
  Si     Si        0.946491313903447    0.019277604672375    0.626234171336655  0.0000
  Si     Si        0.540997166498304    0.026600006637364    0.612920554867951  0.0000
  Si     Si        0.555210108939429    0.012751753580904    0.096751362679572  0.0000
  Si     Si        0.942296717637268    0.020204991888016    0.119362344024847  0.0000
  Si     Si        0.049016965695824    0.014913011673872    0.882410137024822  0.0000
  Si     Si        0.172014431030727    0.288855071073136    0.272273830074270  0.0000
  Si     Si        0.333569755032181    0.742106505943780    0.268172724506327  0.0000
  Si     Si        0.657210254089943    0.736716545923860    0.712098476691251  0.0000
  Si     Si        0.837591059678505    0.718981936978644    0.705078472966495  0.0000
  Si     Si        0.647418708966619    0.331991719211586    0.707929197038989  0.0000
  Si     Si        0.153428396618863    0.695386346456175    0.275034066167451  0.0000
  Si     Si        0.350110886044542    0.341122479272441    0.263458525834712  0.0000
  Si     Si        0.652538801688524    0.330904740222647    0.011774628625919  0.0000
  Si     Si        0.845339355646486    0.708114992952761    0.007718363641778  0.0000
  Si     Si        0.347504622653597    0.359905872168454    0.959283335725182  0.0000
  Si     Si        0.140524190435268    0.698966392711313    0.977864514693582  0.0000
  Si     Si        0.322307347866694    0.752829680021666    0.967680673066912  0.0000
  Si     Si        0.665067196611461    0.728497372163879    0.014644794746675  0.0000
  Si     Si        0.832995028895200    0.305875003436561    0.011995737238474  0.0000
  O3     O3        0.122737450993181    0.162454809789100    0.363133634911317  0.0000
  O2     O2        0.384249358630489    0.879282795121460    0.352846779784050  0.0000
  O3     O3        0.889541742755457    0.183845080942613    0.608963220345710  0.0000
  O2     O2        0.603172696767218    0.871232325695775    0.633186339310694  0.0000
  O2     O2        0.891486062099333    0.845670827346654    0.618974935198440  0.0000
  O2     O2        0.582349351351778    0.215575213256919    0.634379238396315  0.0000
  O3     O3        0.096417902663319    0.797776572424025    0.365623520357302  0.0000
  O2     O2        0.412841666519154    0.221449974322925    0.339776326202838  0.0000
  O3     O3        0.013225857788771    0.015817373607333    0.523363362298821  0.0000
  O2     O2        0.509123978147195    0.016720122861448    0.467389366375393  0.0000
  O3     O3        0.975710584563666    0.022653278195188    0.263273702632695  0.0000
  O2     O2        0.502686975604099    0.996388436102134    0.220731307913002  0.0000
  O2     O2        0.986459489699664    0.031589700378566    0.767989304291858  0.0000
  O3     O3        0.468186179939603    0.006189303169455    0.705669382699559  0.0000
  O2     O2        0.594959469227352    0.206315649189870    0.092799425052413  0.0000
  O2     O2        0.904265541234939    0.828726652319545    0.090776555392615  0.0000
  O3     O3        0.409881935219027    0.253963350523356    0.880542590094671  0.0000
  O2     O2        0.083636232427702    0.818492225976840    0.889245568052027  0.0000
  O3     O3        0.353824640004506    0.905685389141886    0.878037635288413  0.0000
  O3     O3        0.118681307717828    0.153502367559433    0.865108558573730  0.0000
  O2     O2        0.621909893764350    0.864240522410539    0.104831463430120  0.0000
  O2     O2        0.878155747132081    0.172891112789263    0.107262971214614  0.0000
  O3     O3        0.505676000083453    0.972052872868199    0.968736347673386  0.0000
  O2     O2        0.010357478867852    0.064505752311492    0.018546953760971  0.0000
  O2     O2        0.140779504908646    0.486906804188438    0.286532054977212  0.0000
  O2     O2        0.366910351480845    0.546195401302597    0.291698696320397  0.0000
  O3     O3        0.857255166810257    0.522120551153129    0.673476104251321  0.0000
  O2     O2        0.630527760304644    0.537577658658404    0.681171527133248  0.0000
  O2     O2        0.263978709712196    0.287441039673676    0.311775041003160  0.0000
  O2     O2        0.243405438139379    0.747150037081076    0.310415586742463  0.0000
  O3     O3        0.732809491077227    0.282884666476505    0.662480342298406  0.0000
  O2     O2        0.747045039334843    0.762542244644838    0.671045905412138  0.0000
  O3     O3        0.162714894027618    0.225802779762482    0.125591201330838  0.0000
  O2     O2        0.338478817385407    0.799880770742435    0.118062136225362  0.0000
  O3     O3        0.842910045468956    0.251169077349399    0.864694218955350  0.0000
  O2     O2        0.650529028793946    0.776356393507277    0.863918482902514  0.0000
  O2     O2        0.854172584346208    0.755753745486425    0.856898972160872  0.0000
  O2     O2        0.639436101322330    0.290389022878640    0.860532405117659  0.0000
  O2     O2        0.131886314108105    0.755379276282197    0.127606899923037  0.0000
  O2     O2        0.355488304221371    0.305148988309321    0.110920356367980  0.0000
  O2     O2        0.632505986210687    0.532004374107943    0.042435470949367  0.0000
  O2     O2        0.866161728329306    0.504157033127549    0.031963603411959  0.0000
  O2     O2        0.363824074446107    0.567663477970846    0.939514684679460  0.0000
  O3     O3        0.119046539328905    0.498516685707458    0.956135419852152  0.0000
  O2     O2        0.742284704869244    0.294998095966729    0.050236045989746  0.0000
  O2     O2        0.756856631693686    0.741446793548390    0.050058613758922  0.0000
  O3     O3        0.259946419227800    0.312785308788608    0.913251640711470  0.0000
  O2     O2        0.230288315165913    0.729560629038507    0.938664865488920  0.0000
