data_c00319.vasp
_audit_creation_method             Generated by GULP
_audit_author_name                 Salvador R. G. Balestra
_symmetry_space_group_name_H-M     'P 1             '
_symmetry_Int_Tables_number        1

loop_
_symmetry_equiv_pos_site_id
_symmetry_equiv_pos_as_xyz
_cell_length_a                       17.2385
_cell_length_b                        7.6067
_cell_length_c                       10.2822
_cell_angle_alpha                   89.7345
_cell_angle_beta                    90.7492
_cell_angle_gamma                   90.4345

loop_
_atom_site_label
_atom_site_type_symbol
_atom_site_fract_x
_atom_site_fract_y
_atom_site_fract_z
_atom_site_charge
  Ge     Ge        0.052090000000021    0.000000000000000    0.372269999999958  0.0000
  Ge     Ge        0.936473498527789    0.999677026369847    0.113486755060636  0.0000
  Ge     Ge        0.843214568490282    0.320807063844962    0.722892255065807  0.0000
  Ge     Ge        0.823811030840663    0.743988039181719    0.736147732894244  0.0000
  Si     Si        0.450927958392747    0.992544742235090    0.365803665206778  0.0000
  Si     Si        0.948362217381131    0.024751012076199    0.626876703355092  0.0000
  Si     Si        0.540803518910161    0.991483488124150    0.635471248843526  0.0000
  Si     Si        0.549522945514412    0.982366780315797    0.112874999398936  0.0000
  Si     Si        0.432047592083698    0.996416658961864    0.877126471443972  0.0000
  Si     Si        0.048242621406906    0.995589408088673    0.877168383200242  0.0000
  Si     Si        0.157623790250783    0.308267249120596    0.294817793718072  0.0000
  Si     Si        0.347368816911780    0.686215437399253    0.276187960961201  0.0000
  Si     Si        0.644552974855123    0.683717074464927    0.723071824615477  0.0000
  Si     Si        0.661185663143661    0.281018892877457    0.716071189805610  0.0000
  Si     Si        0.168257112960835    0.714118240890105    0.289518652445447  0.0000
  Si     Si        0.336058554328972    0.282769449379676    0.279369925128486  0.0000
  Si     Si        0.662251724852548    0.271497249860646    0.022405457908440  0.0000
  Si     Si        0.817642064133091    0.718398876305172    0.041298771588978  0.0000
  Si     Si        0.324453978361760    0.282903532670967    0.975910608791481  0.0000
  Si     Si        0.158254764083439    0.709145787300798    0.987958443479199  0.0000
  Si     Si        0.337955775980944    0.683091572561687    0.974105618863359  0.0000
  Si     Si        0.145632130538435    0.305391845752964    0.992774729747655  0.0000
  Si     Si        0.641910879971081    0.664706242556102    0.029789524602162  0.0000
  Si     Si        0.839782655102669    0.315690178583291    0.028588314596294  0.0000
  O3     O3        0.101764885690481    0.198306182349251    0.385689293592129  0.0000
  O2     O2        0.406322126421808    0.805904247708589    0.358823793952926  0.0000
  O3     O3        0.914145966059683    0.219535332621181    0.634001418989581  0.0000
  O2     O2        0.579449334679228    0.800660229156989    0.651610611592052  0.0000
  O3     O3        0.875212159530951    0.898762215165047    0.652489375842323  0.0000
  O2     O2        0.606207818082769    0.143385143875062    0.640966816473594  0.0000
  O3     O3        0.121681198104924    0.836643172837889    0.383726241400760  0.0000
  O2     O2        0.389163739072447    0.150286126600634    0.361138047203352  0.0000
  O3     O3        0.981186757645758    0.984612310032538    0.486031609242646  0.0000
  O2     O2        0.498860217975228    0.003227486210037    0.497690344871009  0.0000
  O1     O1        0.007563230839267    0.975612667676506    0.225132631923406  0.0000
  O2     O2        0.511054816561986    0.012824246523502    0.250028976341990  0.0000
  O2     O2        0.020682223814418    0.996368500216604    0.727074529288437  0.0000
  O2     O2        0.475928577975878    0.019774254065930    0.743257901361707  0.0000
  O2     O2        0.621072603100816    0.117824849839961    0.102384238649064  0.0000
  O3     O3        0.864694596125285    0.841677931065404    0.138437845710266  0.0000
  O2     O2        0.366904770947137    0.146664556303628    0.883688974160383  0.0000
  O2     O2        0.111202577331337    0.841604657335043    0.896148642767563  0.0000
  O2     O2        0.390879195813399    0.804837308517295    0.882786809657139  0.0000
  O2     O2        0.084786199326379    0.186433402103483    0.913104312314698  0.0000
  O2     O2        0.580136400921711    0.782383009555173    0.105178701202874  0.0000
  O3     O3        0.896828099232285    0.208222245751123    0.121970725205454  0.0000
  O2     O2        0.490497846192982    0.025030142821580    0.996642939071927  0.0000
  O3     O3        0.974247301819991    0.955856878146787    0.962054748768417  0.0000
  O2     O2        0.143556414136335    0.513419142637598    0.317863145468788  0.0000
  O2     O2        0.363844550133771    0.482200328711558    0.307170625218862  0.0000
  O1     O1        0.861293842553221    0.540391035720721    0.710492788729183  0.0000
  O2     O2        0.629875060328561    0.478388740632828    0.690533897914579  0.0000
  O2     O2        0.247223663647886    0.259114158014035    0.322981212648984  0.0000
  O2     O2        0.260174476337969    0.736142538494568    0.313948745126827  0.0000
  O3     O3        0.749268597440901    0.270445126479362    0.670175760040304  0.0000
  O3     O3        0.728889790820882    0.740867953263896    0.677573459943653  0.0000
  O2     O2        0.136106761247008    0.259324044171629    0.144885200556506  0.0000
  O2     O2        0.360074932997365    0.725436097957253    0.123574283357699  0.0000
  O3     O3        0.853028140003129    0.250485936463926    0.882534410254375  0.0000
  O2     O2        0.638720071297952    0.713990571434464    0.877854294388791  0.0000
  O3     O3        0.822052968426172    0.801194533884363    0.897822536721794  0.0000
  O2     O2        0.659123207173851    0.233571537531594    0.869026970436337  0.0000
  O2     O2        0.148474907092047    0.762426163481225    0.138588812437833  0.0000
  O2     O2        0.342286410245724    0.239317927990305    0.126664033593264  0.0000
  O2     O2        0.621574062087217    0.458922522618923    0.051443527347479  0.0000
  O2     O2        0.855849060525385    0.524311450453399    0.036229996464457  0.0000
  O2     O2        0.354150004573527    0.479625229387202    0.942377343528799  0.0000
  O2     O2        0.126656749294536    0.510301029450567    0.966294492294609  0.0000
  O2     O2        0.751186515305297    0.276284557316298    0.069997789013017  0.0000
  O2     O2        0.728248208103521    0.702750443849792    0.085142516955987  0.0000
  O2     O2        0.232703072031093    0.265433239669919    0.947897953066762  0.0000
  O2     O2        0.247783495189839    0.723512660666142    0.948236718323364  0.0000
