data_c00381.vasp
_audit_creation_method             Generated by GULP
_audit_author_name                 Salvador R. G. Balestra
_symmetry_space_group_name_H-M     'P 1             '
_symmetry_Int_Tables_number        1

loop_
_symmetry_equiv_pos_site_id
_symmetry_equiv_pos_as_xyz
_cell_length_a                       17.1545
_cell_length_b                        7.6138
_cell_length_c                       10.2924
_cell_angle_alpha                   89.9569
_cell_angle_beta                    90.2041
_cell_angle_gamma                   90.7355

loop_
_atom_site_label
_atom_site_type_symbol
_atom_site_fract_x
_atom_site_fract_y
_atom_site_fract_z
_atom_site_charge
  Ge     Ge        0.052090000000021    0.000000000000000    0.372269999999958  0.0000
  Ge     Ge        0.438954850704891    0.022742224901253    0.859886253655921  0.0000
  Ge     Ge        0.336880642038550    0.757675914481491    0.278203209264652  0.0000
  Ge     Ge        0.359331241556577    0.336165870823880    0.280533813562385  0.0000
  Si     Si        0.460326068172922    0.031486940722629    0.366540641579911  0.0000
  Si     Si        0.952487173587249    0.009388743525642    0.636286606805536  0.0000
  Si     Si        0.555714512895308    0.011576171175258    0.621208042405144  0.0000
  Si     Si        0.552664799891379    0.003809668083074    0.105677356729497  0.0000
  Si     Si        0.943979115017168    0.013745408613529    0.116034882503002  0.0000
  Si     Si        0.056775373988252    0.997869243568912    0.881661398106912  0.0000
  Si     Si        0.175833736275690    0.284946326562330    0.292551995796750  0.0000
  Si     Si        0.838971334240861    0.301253678928543    0.732412502260370  0.0000
  Si     Si        0.666934746701800    0.720321512283113    0.726376013360054  0.0000
  Si     Si        0.846068960343509    0.705006121813428    0.731999707359392  0.0000
  Si     Si        0.660111565346051    0.315858809917211    0.724208151712671  0.0000
  Si     Si        0.154373718354968    0.689912148316738    0.290803795003414  0.0000
  Si     Si        0.653327906515155    0.318972545783230    0.027870424189893  0.0000
  Si     Si        0.844877913120401    0.699581665777345    0.036184188316416  0.0000
  Si     Si        0.348566525731935    0.335748381862464    0.976246506278420  0.0000
  Si     Si        0.147511244974745    0.683962294617239    0.987874696112795  0.0000
  Si     Si        0.326914714380067    0.740139331541772    0.973277650122340  0.0000
  Si     Si        0.168507080152815    0.286716138349805    0.988849746360253  0.0000
  Si     Si        0.665183363021091    0.718047239659862    0.030000670667801  0.0000
  Si     Si        0.832722014778020    0.301427531457698    0.036573056701727  0.0000
  O3     O3        0.127054922353970    0.153290923076151    0.381208525802238  0.0000
  O3     O3        0.385426629149890    0.903906450577599    0.377407481859272  0.0000
  O2     O2        0.894917101239189    0.172541191383182    0.655814182113166  0.0000
  O2     O2        0.612859652050233    0.848537441918637    0.644239710281786  0.0000
  O2     O2        0.904734914824103    0.826820657678679    0.651284626077664  0.0000
  O2     O2        0.602483638116944    0.194664902690975    0.640444704504719  0.0000
  O3     O3        0.091892126788628    0.793203841843348    0.374570114064841  0.0000
  O3     O3        0.428900196097286    0.227738454771961    0.370394814236882  0.0000
  O3     O3        0.985354174772941    0.022454421302424    0.493497221417848  0.0000
  O2     O2        0.526560429017584    0.000446475115469    0.473278480215469  0.0000
  O3     O3        0.003135559749485    0.041523543666293    0.230225799291231  0.0000
  O2     O2        0.496223901840670    0.983382508931827    0.226520532268209  0.0000
  O2     O2        0.025683284273888    0.014587358586817    0.735114711123076  0.0000
  O3     O3        0.479398914584446    0.005614454124802    0.708505458628581  0.0000
  O2     O2        0.593514227330613    0.197125989380266    0.107457338258849  0.0000
  O2     O2        0.901137196057275    0.822752570297755    0.122557963783824  0.0000
  O3     O3        0.402452772961525    0.232114182485477    0.877294832573692  0.0000
  O2     O2        0.088455531152035    0.800711382539019    0.903691364938788  0.0000
  O3     O3        0.365214809260930    0.866069672086640    0.868091604485777  0.0000
  O2     O2        0.125548353251624    0.141112941124170    0.901426703358534  0.0000
  O2     O2        0.618214236128824    0.853894710371549    0.116461756662520  0.0000
  O2     O2        0.878524097446496    0.163909743044052    0.124012631625617  0.0000
  O3     O3        0.507711737631812    0.969144362764487    0.973209578701200  0.0000
  O2     O2        0.987071500513700    0.037983287053044    0.978856925092891  0.0000
  O2     O2        0.145964448201102    0.482538842014817    0.315424775997853  0.0000
  O1     O1        0.375508820945494    0.554032762306281    0.299981461353079  0.0000
  O2     O2        0.863874270077100    0.501961624924200    0.700999804811955  0.0000
  O2     O2        0.642583509301380    0.519441986333483    0.694244321885012  0.0000
  O3     O3        0.266133165127431    0.276513012318511    0.329157990940653  0.0000
  O3     O3        0.240665384050858    0.753952522832146    0.326868105308942  0.0000
  O2     O2        0.749164966797078    0.271046172907361    0.688911288293241  0.0000
  O2     O2        0.757596283046735    0.750458646001700    0.690921447129107  0.0000
  O2     O2        0.164435456747595    0.233706693131523    0.140306824720589  0.0000
  O3     O3        0.340606522611699    0.818529042340426    0.116247233768504  0.0000
  O2     O2        0.845180669423068    0.261622810806401    0.884982422752545  0.0000
  O2     O2        0.654981277626798    0.761958931358302    0.877886418080496  0.0000
  O2     O2        0.858702969494643    0.741823755478479    0.884578942727014  0.0000
  O2     O2        0.642999112125472    0.275782947826580    0.875332287653866  0.0000
  O2     O2        0.137865971965966    0.734424621404548    0.138780856986660  0.0000
  O3     O3        0.369040229101061    0.270548410063798    0.120082574498495  0.0000
  O2     O2        0.632914715715205    0.521017618810856    0.056809732115572  0.0000
  O2     O2        0.864156851568739    0.497691488807270    0.068383473938413  0.0000
  O2     O2        0.363876291965741    0.545141437682284    0.969200910700832  0.0000
  O2     O2        0.128862667465252    0.476966630023724    0.966258882109994  0.0000
  O2     O2        0.741659829776546    0.282448645741643    0.071316404985300  0.0000
  O2     O2        0.755284883517632    0.735337384582866    0.070961079397473  0.0000
  O2     O2        0.257941348091037    0.293770553542707    0.943937910616467  0.0000
  O2     O2        0.235060241717433    0.724995709938093    0.942491001478245  0.0000
