data_c00351.vasp
_audit_creation_method             Generated by GULP
_audit_author_name                 Salvador R. G. Balestra
_symmetry_space_group_name_H-M     'P 1             '
_symmetry_Int_Tables_number        1

loop_
_symmetry_equiv_pos_site_id
_symmetry_equiv_pos_as_xyz
_cell_length_a                       17.1009
_cell_length_b                        7.5913
_cell_length_c                       10.3088
_cell_angle_alpha                   90.5971
_cell_angle_beta                    89.9519
_cell_angle_gamma                   89.6222

loop_
_atom_site_label
_atom_site_type_symbol
_atom_site_fract_x
_atom_site_fract_y
_atom_site_fract_z
_atom_site_charge
  Ge     Ge        0.052090000000021    0.000000000000000    0.372269999999958  0.0000
  Ge     Ge        0.937882234283575    0.987684890511848    0.112634951964447  0.0000
  Ge     Ge        0.326878018537034    0.232699076016264    0.977178219231143  0.0000
  Ge     Ge        0.351239136369805    0.645726720254997    0.967492970489618  0.0000
  Si     Si        0.450170240460264    0.978714750914870    0.368319593933865  0.0000
  Si     Si        0.950514300123753    0.991414690846693    0.633525665935786  0.0000
  Si     Si        0.552134362739061    0.980607138413046    0.624036374932157  0.0000
  Si     Si        0.544468407769854    0.988182368467419    0.108320999421787  0.0000
  Si     Si        0.439502133418711    0.960637197092079    0.864909526249198  0.0000
  Si     Si        0.051659967897242    0.980361881580957    0.879020047899466  0.0000
  Si     Si        0.154609083062629    0.311782072214970    0.296412737505487  0.0000
  Si     Si        0.352654281500332    0.668921677014350    0.272690789321119  0.0000
  Si     Si        0.845380297036312    0.297053548459875    0.730452347045082  0.0000
  Si     Si        0.654605921244942    0.674378640742955    0.713242877103531  0.0000
  Si     Si        0.833405215368597    0.704340018171036    0.732817639598477  0.0000
  Si     Si        0.665840640966079    0.270479543857391    0.713673501852461  0.0000
  Si     Si        0.172595062375113    0.713439015494196    0.284331228275470  0.0000
  Si     Si        0.333517085519998    0.262025177461438    0.284374864879083  0.0000
  Si     Si        0.658675959073159    0.271718573649523    0.016231820138622  0.0000
  Si     Si        0.819822352632841    0.706642603127285    0.034439284605936  0.0000
  Si     Si        0.165683301506051    0.694848307753387    0.982092133422979  0.0000
  Si     Si        0.144378690617173    0.295036965508515    0.993858738606157  0.0000
  Si     Si        0.641014318802567    0.670361135835292    0.015628428490012  0.0000
  Si     Si        0.838725839653534    0.306140591101969    0.031687766199823  0.0000
  O3     O3        0.094670686827403    0.206006810209952    0.383460701192708  0.0000
  O2     O2        0.410646113224994    0.786040096231324    0.361265138597856  0.0000
  O2     O2        0.906551971283760    0.179605733661611    0.649195919647456  0.0000
  O2     O2        0.597462097773540    0.793834296790924    0.627235317965469  0.0000
  O2     O2        0.889562355693147    0.833512213245281    0.655570870715355  0.0000
  O2     O2        0.615473219889260    0.137059712823618    0.626671895326172  0.0000
  O3     O3        0.128396336805699    0.848865614123417    0.376338311566685  0.0000
  O2     O2        0.384448227734240    0.132775102056816    0.374773395178767  0.0000
  O3     O3        0.982579379695383    0.974229006159559    0.489840703065991  0.0000
  O2     O2        0.502369434890055    0.991258931456697    0.495097981696828  0.0000
  O1     O1        0.004842364691484    0.961397425450135    0.229607137942736  0.0000
  O2     O2        0.506702612480000    0.011570420310657    0.247760363085483  0.0000
  O2     O2        0.025272913359378    0.981571636386770    0.728971047709610  0.0000
  O2     O2        0.492665864859333    0.003700946361973    0.743111654218658  0.0000
  O2     O2        0.613657271320121    0.129407663715342    0.099901187802588  0.0000
  O3     O3        0.861132693210844    0.840962925120241    0.128563611300992  0.0000
  O3     O3        0.359785770976739    0.072744092998367    0.871090545728618  0.0000
  O2     O2        0.120376098625115    0.835753892286827    0.894374926778237  0.0000
  O3     O3        0.415545047279881    0.757952779675035    0.869242008766757  0.0000
  O2     O2        0.079530932542519    0.175998862495944    0.922726418059785  0.0000
  O2     O2        0.577924118018517    0.789540914305007    0.091518761452512  0.0000
  O3     O3        0.896472846377545    0.196590374884552    0.120033972536354  0.0000
  O2     O2        0.481528881680379    0.029670254831004    0.997334630280239  0.0000
  O3     O3        0.978541320237180    0.930240715500133    0.965078513401315  0.0000
  O2     O2        0.138353965426129    0.519364197256692    0.311392707254933  0.0000
  O2     O2        0.368727264248770    0.459774331322572    0.288449815895540  0.0000
  O2     O2        0.862368445194778    0.503419664662557    0.708584986390211  0.0000
  O2     O2        0.638743945829364    0.469447432915739    0.681930045997194  0.0000
  O2     O2        0.244152801837326    0.267061411182448    0.335362692985540  0.0000
  O2     O2        0.264500190240325    0.714295229504351    0.316801870139100  0.0000
  O2     O2        0.757858781077711    0.249871532639425    0.682595658900903  0.0000
  O2     O2        0.744328702727928    0.722551840109010    0.681586291133972  0.0000
  O2     O2        0.140364232782847    0.251127268186014    0.146985398832612  0.0000
  O3     O3        0.366407619369249    0.720101871987694    0.124807075323121  0.0000
  O2     O2        0.855457016177594    0.251490601805049    0.881753490667240  0.0000
  O2     O2        0.634801232784769    0.714892267664431    0.863513294659549  0.0000
  O2     O2        0.833759694228381    0.756559692676176    0.884070665768943  0.0000
  O2     O2        0.651829896886954    0.225275299675864    0.864031733320718  0.0000
  O2     O2        0.162265196924814    0.760240322246124    0.132156548517882  0.0000
  O3     O3        0.335051407684918    0.184507536798652    0.139784271418829  0.0000
  O2     O2        0.621566456453332    0.465926921401348    0.041028399372724  0.0000
  O2     O2        0.854476027024285    0.511407200970398    0.057127317003733  0.0000
  O1     O1        0.372042977893209    0.428828805785748    0.948162893380784  0.0000
  O2     O2        0.125544482882601    0.502083500607107    0.970561148576892  0.0000
  O2     O2        0.748208922897713    0.264914025284332    0.062003310882864  0.0000
  O2     O2        0.727601716821266    0.711579954306083    0.065854205318607  0.0000
  O3     O3        0.228976770658129    0.252321860594107    0.938762610126299  0.0000
  O3     O3        0.253701315034364    0.683271136796022    0.932340044622590  0.0000
