data_c00388.vasp
_audit_creation_method             Generated by GULP
_audit_author_name                 Salvador R. G. Balestra
_symmetry_space_group_name_H-M     'P 1             '
_symmetry_Int_Tables_number        1

loop_
_symmetry_equiv_pos_site_id
_symmetry_equiv_pos_as_xyz
_cell_length_a                       17.1172
_cell_length_b                        7.6257
_cell_length_c                       10.3152
_cell_angle_alpha                   89.1522
_cell_angle_beta                    90.1790
_cell_angle_gamma                   90.1924

loop_
_atom_site_label
_atom_site_type_symbol
_atom_site_fract_x
_atom_site_fract_y
_atom_site_fract_z
_atom_site_charge
  Ge     Ge        0.052090000000021    0.000000000000000    0.372269999999958  0.0000
  Ge     Ge        0.447850836632884    0.029475448715486    0.858591567535395  0.0000
  Ge     Ge        0.338692433094898    0.743456895106118    0.274949473337602  0.0000
  Ge     Ge        0.672105725675504    0.731016889405365    0.020065894674572  0.0000
  Si     Si        0.457301407485792    0.027084767220978    0.356968023051151  0.0000
  Si     Si        0.955027951943031    0.018340188184048    0.639089303550192  0.0000
  Si     Si        0.557631942624726    0.030959762909355    0.609538683468605  0.0000
  Si     Si        0.558485166025432    0.012048047447586    0.104030638817032  0.0000
  Si     Si        0.945527480047146    0.008804557903778    0.122150376624839  0.0000
  Si     Si        0.060056806231240    0.018061650965361    0.891414437958746  0.0000
  Si     Si        0.174843292034788    0.288889253203536    0.272481079612224  0.0000
  Si     Si        0.839585502974284    0.307002110645697    0.712367847426888  0.0000
  Si     Si        0.670848140259826    0.739566319424433    0.711804089871054  0.0000
  Si     Si        0.849498858840946    0.707992013781156    0.714183953477507  0.0000
  Si     Si        0.659542464834826    0.333104743284673    0.710991026185103  0.0000
  Si     Si        0.155376365804223    0.691946750434486    0.279692979075264  0.0000
  Si     Si        0.354761610344828    0.331533533315357    0.270931915178027  0.0000
  Si     Si        0.654086606390890    0.328224898168791    0.011616378945278  0.0000
  Si     Si        0.853877539652501    0.692552732966961    0.020125879782121  0.0000
  Si     Si        0.353692561914768    0.344813026349795    0.969963080540451  0.0000
  Si     Si        0.153614507094888    0.699221654960612    0.976970852156965  0.0000
  Si     Si        0.333914362765193    0.747308161120003    0.968965599379476  0.0000
  Si     Si        0.173647926884951    0.302641636797215    0.970199727248607  0.0000
  Si     Si        0.836029749476853    0.297220308068574    0.014905585385803  0.0000
  O3     O3        0.126647076786546    0.150615560798334    0.354883294790587  0.0000
  O3     O3        0.393761985701345    0.874536268270102    0.374336270854122  0.0000
  O2     O2        0.891077977936185    0.174309994294367    0.629492699726124  0.0000
  O2     O2        0.617827158121166    0.869972588168805    0.626163139281992  0.0000
  O2     O2        0.909636228577877    0.831855803464379    0.636601152465278  0.0000
  O2     O2        0.602187676382174    0.216860456122580    0.624503686485123  0.0000
  O3     O3        0.091749426779514    0.793379593182457    0.361394379454551  0.0000
  O2     O2        0.412761562325703    0.213136881944129    0.357580284188149  0.0000
  O3     O3        0.015128368221050    0.030750523835525    0.524236367681997  0.0000
  O2     O2        0.524052157170384    0.023805716892481    0.464873432503309  0.0000
  O3     O3        0.974968551287643    0.026922875938701    0.266784681479515  0.0000
  O2     O2        0.497487295930668    0.997807487454003    0.218875140878755  0.0000
  O2     O2        0.002936248628356    0.039221360085397    0.771419967921697  0.0000
  O3     O3        0.485110852501221    0.017150817863251    0.705333151941331  0.0000
  O2     O2        0.597596835286221    0.205320605738585    0.096778411587653  0.0000
  O2     O2        0.916206838728804    0.810353841954195    0.096274204613453  0.0000
  O3     O3        0.413070523346148    0.239373791087510    0.883069082095138  0.0000
  O2     O2        0.095729437461105    0.821809373323434    0.892808417275402  0.0000
  O3     O3        0.372295930992230    0.879349567170850    0.868013846479263  0.0000
  O2     O2        0.128936582391593    0.163098457985698    0.881210603271029  0.0000
  O3     O3        0.626125250927485    0.870278431344822    0.122749366959239  0.0000
  O2     O2        0.874993156344293    0.145984040724721    0.101375504626344  0.0000
  O3     O3        0.517071964711195    0.965284296409662    0.969466495128430  0.0000
  O2     O2        0.015136546975295    0.057213805256300    0.024194116698276  0.0000
  O2     O2        0.144096017530709    0.484028098899488    0.301002192215771  0.0000
  O3     O3        0.372254870811793    0.531907343012891    0.296383216508531  0.0000
  O2     O2        0.868804053699506    0.505581595535818    0.684079369346750  0.0000
  O2     O2        0.641693184402196    0.539371799186996    0.691394081143700  0.0000
  O2     O2        0.266135336362096    0.280516159549487    0.310360222347121  0.0000
  O3     O3        0.241903801519586    0.750766497276138    0.319949769277191  0.0000
  O2     O2        0.748693999347341    0.291352554647336    0.672348104902832  0.0000
  O2     O2        0.761468857654743    0.753753556020702    0.668697668008866  0.0000
  O2     O2        0.165358208692933    0.246156190174846    0.120489082357618  0.0000
  O3     O3        0.347710509219514    0.810432866232227    0.115122943650290  0.0000
  O2     O2        0.847623375350740    0.255996226872594    0.863754397253976  0.0000
  O3     O3        0.664133535758219    0.795415729651740    0.859665923547472  0.0000
  O2     O2        0.857029784464903    0.740576637991656    0.867381343057895  0.0000
  O2     O2        0.643039808725333    0.279233138026405    0.860308375688880  0.0000
  O2     O2        0.141662530030895    0.741689896029219    0.127997906225181  0.0000
  O2     O2        0.367195473811503    0.286308757453861    0.119477429469766  0.0000
  O3     O3        0.630633026953225    0.525314914841150    0.036216429512226  0.0000
  O2     O2        0.874131556273707    0.487076828840037    0.044835678157473  0.0000
  O2     O2        0.369795336132253    0.552144917417611    0.954973310632191  0.0000
  O2     O2        0.135934751625773    0.495411993003143    0.947635578967353  0.0000
  O2     O2        0.744662868238467    0.299929082139779    0.049940577906645  0.0000
  O3     O3        0.767868552067382    0.728936830699263    0.070148261798958  0.0000
  O2     O2        0.264262316333337    0.302551686147871    0.929212650094361  0.0000
  O2     O2        0.241957381363998    0.741683176052904    0.937759822946728  0.0000
