data_c00377.vasp
_audit_creation_method             Generated by GULP
_audit_author_name                 Salvador R. G. Balestra
_symmetry_space_group_name_H-M     'P 1             '
_symmetry_Int_Tables_number        1

loop_
_symmetry_equiv_pos_site_id
_symmetry_equiv_pos_as_xyz
_cell_length_a                       17.2205
_cell_length_b                        7.6424
_cell_length_c                       10.2356
_cell_angle_alpha                   88.9472
_cell_angle_beta                    90.6598
_cell_angle_gamma                   90.4705

loop_
_atom_site_label
_atom_site_type_symbol
_atom_site_fract_x
_atom_site_fract_y
_atom_site_fract_z
_atom_site_charge
  Ge     Ge        0.052090000000021    0.000000000000000    0.372269999999958  0.0000
  Ge     Ge        0.437175362275629    0.039069906460439    0.843630407725250  0.0000
  Ge     Ge        0.336582836113140    0.743522111856276    0.265731755132514  0.0000
  Ge     Ge        0.837060691573359    0.319998024088770    0.703553006192694  0.0000
  Si     Si        0.455882864676602    0.028245563907080    0.343293791102895  0.0000
  Si     Si        0.952448657099489    0.030818836144085    0.632040856841980  0.0000
  Si     Si        0.549718160520392    0.038011180589519    0.602912508890739  0.0000
  Si     Si        0.554134448682023    0.016800867545632    0.087033045059522  0.0000
  Si     Si        0.939117497979040    0.019726218354556    0.127658492572746  0.0000
  Si     Si        0.051208237546365    0.020760272559289    0.892038776026847  0.0000
  Si     Si        0.172331059850807    0.292148260288100    0.268992754044394  0.0000
  Si     Si        0.662376611218029    0.743533907359122    0.707589883299021  0.0000
  Si     Si        0.841752736157629    0.731038437999593    0.708794214910502  0.0000
  Si     Si        0.654817509656657    0.340221663918605    0.701862355813340  0.0000
  Si     Si        0.154639466991498    0.694572937054868    0.276404656338016  0.0000
  Si     Si        0.351194358654115    0.331421054150293    0.258823924596380  0.0000
  Si     Si        0.654304476189596    0.332723258715697    0.009408758460299  0.0000
  Si     Si        0.843171717988778    0.712202920638359    0.014416376375353  0.0000
  Si     Si        0.343968441637518    0.350256512601995    0.955894375239344  0.0000
  Si     Si        0.147231036507175    0.704060717329665    0.970669467995479  0.0000
  Si     Si        0.326064185413383    0.752056878294285    0.957609499134667  0.0000
  Si     Si        0.165124136932652    0.308575789858681    0.964255769759653  0.0000
  Si     Si        0.664126908068224    0.728875399540928    0.013438755418286  0.0000
  Si     Si        0.833481850680024    0.310763042833044    0.014847524685991  0.0000
  O3     O3        0.124632576594237    0.154446420363052    0.352962948246378  0.0000
  O3     O3        0.393619516272112    0.873902677622955    0.363145511757599  0.0000
  O3     O3        0.897559192062352    0.197702597719698    0.610679822662360  0.0000
  O2     O2        0.608985194109707    0.878717603843668    0.628041582634983  0.0000
  O2     O2        0.896364728812128    0.860538302116502    0.625846334129337  0.0000
  O2     O2        0.592276473058865    0.223759644137436    0.625127280154258  0.0000
  O3     O3        0.092257625977632    0.795555520897100    0.358896965055216  0.0000
  O2     O2        0.410572162766002    0.212153831002535    0.341919643108833  0.0000
  O3     O3        0.019789922172167    0.021164825569219    0.529328141750466  0.0000
  O2     O2        0.522383722170888    0.029965304338733    0.452998648431519  0.0000
  O3     O3        0.971642363477745    0.025639058307083    0.273004214015104  0.0000
  O2     O2        0.495990908692566    0.996624917972716    0.205266711679126  0.0000
  O2     O2        0.990879683546761    0.045247757532424    0.775444882808500  0.0000
  O3     O3        0.473552033559652    0.023645114451795    0.689167075077666  0.0000
  O2     O2        0.596580540920896    0.206466081859466    0.089514506466367  0.0000
  O2     O2        0.898503298773103    0.831652918871494    0.102862744256213  0.0000
  O3     O3        0.400176810580767    0.246455006011226    0.864079027512659  0.0000
  O2     O2        0.088134515093653    0.826802065075575    0.888716901326124  0.0000
  O3     O3        0.364049725235560    0.884639058004586    0.856140299978014  0.0000
  O2     O2        0.118309917002873    0.168891369111653    0.878160406928346  0.0000
  O2     O2        0.617803609794029    0.862973368516844    0.100756191532248  0.0000
  O2     O2        0.878357775840461    0.177365902813698    0.110536674376049  0.0000
  O3     O3        0.510077306553048    0.988693388919057    0.951940579647871  0.0000
  O2     O2        0.010175962599000    0.049924500963165    0.029626783542657  0.0000
  O2     O2        0.143667155688816    0.487053832245496    0.300002874878444  0.0000
  O3     O3        0.368921961910626    0.531528492939388    0.284609192598815  0.0000
  O3     O3        0.862916330093205    0.535401854190978    0.676437660313410  0.0000
  O2     O2        0.637276136150303    0.545321156171476    0.673793689153202  0.0000
  O2     O2        0.263808839242849    0.280234659884198    0.302661588154167  0.0000
  O3     O3        0.241261865321152    0.752914654349617    0.314892334774047  0.0000
  O3     O3        0.740666198395441    0.294562438092928    0.658296502548245  0.0000
  O2     O2        0.752270135934600    0.772376412293368    0.669979435440646  0.0000
  O2     O2        0.159411115430142    0.252619422377823    0.116060849420969  0.0000
  O3     O3        0.342236251460708    0.813187299070765    0.104577803143789  0.0000
  O3     O3        0.845883769844075    0.259782034691733    0.866255445394965  0.0000
  O2     O2        0.652864973101899    0.777727877705948    0.860892456009587  0.0000
  O2     O2        0.854790809500213    0.764441040886785    0.863049007853049  0.0000
  O2     O2        0.644723988329905    0.297208552587539    0.855681426056986  0.0000
  O2     O2        0.139173040668715    0.743407643282944    0.123677022367164  0.0000
  O2     O2        0.360502073088281    0.288497413307713    0.105410639596773  0.0000
  O2     O2        0.632353206213472    0.532210897451267    0.040824869694048  0.0000
  O2     O2        0.864781920240527    0.508754985785906    0.037545407154065  0.0000
  O2     O2        0.360493073067446    0.557123755247791    0.941907935286184  0.0000
  O2     O2        0.128015812435712    0.501129930219017    0.941353381331480  0.0000
  O2     O2        0.742901215591258    0.297152173368431    0.051379782139013  0.0000
  O2     O2        0.754316314346360    0.742620399616929    0.053836849299341  0.0000
  O2     O2        0.254193130519587    0.308768967556885    0.918979935847959  0.0000
  O2     O2        0.234271236787616    0.747637480963738    0.927218856385633  0.0000
