data_c00367.vasp
_audit_creation_method             Generated by GULP
_audit_author_name                 Salvador R. G. Balestra
_symmetry_space_group_name_H-M     'P 1             '
_symmetry_Int_Tables_number        1

loop_
_symmetry_equiv_pos_site_id
_symmetry_equiv_pos_as_xyz
_cell_length_a                       17.1448
_cell_length_b                        7.5926
_cell_length_c                       10.3576
_cell_angle_alpha                   89.6244
_cell_angle_beta                    91.4409
_cell_angle_gamma                   90.7194

loop_
_atom_site_label
_atom_site_type_symbol
_atom_site_fract_x
_atom_site_fract_y
_atom_site_fract_z
_atom_site_charge
  Ge     Ge        0.052090000000021    0.000000000000000    0.372269999999958  0.0000
  Ge     Ge        0.444950323023732    0.042366930644218    0.883956108195957  0.0000
  Ge     Ge        0.180300591408115    0.274332596017253    0.277790151191794  0.0000
  Ge     Ge        0.157013483736517    0.693685059922392    0.287583247324752  0.0000
  Si     Si        0.462828310585739    0.035843742725016    0.363970059059427  0.0000
  Si     Si        0.949931734569771    0.024529825418060    0.624814092295146  0.0000
  Si     Si        0.552850661467954    0.028805669024322    0.632576251039104  0.0000
  Si     Si        0.564041214690649    0.023564936835159    0.123311289579888  0.0000
  Si     Si        0.952603154260596    0.031453109011242    0.105723242693583  0.0000
  Si     Si        0.059862472068394    0.017708201448764    0.868408279281399  0.0000
  Si     Si        0.340180619838256    0.748377545176953    0.275600338245720  0.0000
  Si     Si        0.837396294138844    0.314384340653585    0.723027248801963  0.0000
  Si     Si        0.667658385913746    0.741454043249210    0.719118140750455  0.0000
  Si     Si        0.847762892721989    0.718363602164775    0.720575581411557  0.0000
  Si     Si        0.658287293747534    0.336047766856981    0.719690066865898  0.0000
  Si     Si        0.361400431971129    0.343135443074309    0.267653501490692  0.0000
  Si     Si        0.659012954632234    0.339479411508408    0.021284099697961  0.0000
  Si     Si        0.853458713167345    0.716191419725597    0.021602436367548  0.0000
  Si     Si        0.351616186171022    0.362394209442415    0.965970517591707  0.0000
  Si     Si        0.149232351748673    0.703683030092773    0.982402684899498  0.0000
  Si     Si        0.327840540241811    0.757846154813370    0.973656713069107  0.0000
  Si     Si        0.172739847504142    0.301226273999677    0.972082818970768  0.0000
  Si     Si        0.672800609647611    0.740961116521176    0.019706001833811  0.0000
  Si     Si        0.838475494284677    0.316566040777498    0.025404895638903  0.0000
  O1     O1        0.136015254621634    0.126310087742297    0.375331197318258  0.0000
  O2     O2        0.395804802110434    0.886236966868083    0.351152182022614  0.0000
  O2     O2        0.890296949399399    0.183307895131153    0.644947673435816  0.0000
  O2     O2        0.616029573845970    0.872185539170480    0.631755551490826  0.0000
  O2     O2        0.903940906269550    0.838413418040579    0.635006668319110  0.0000
  O2     O2        0.598026352580887    0.216696253828625    0.637527893929458  0.0000
  O1     O1        0.088192453751290    0.792605240672171    0.378665934029647  0.0000
  O2     O2        0.427719521904458    0.229949909735374    0.341436791568035  0.0000
  O3     O3        0.983453637845519    0.043869125680622    0.484286150364980  0.0000
  O2     O2        0.498402366242465    0.022419526039134    0.506694717075165  0.0000
  O3     O3        0.009885809734516    0.056615234156802    0.224255707227483  0.0000
  O2     O2        0.532869366409532    0.005895169026737    0.266945276151993  0.0000
  O2     O2        0.023100650887386    0.029372236984628    0.724942273980925  0.0000
  O3     O3        0.498171188876067    0.000451022921274    0.752390117108639  0.0000
  O2     O2        0.600104032799613    0.219325096028664    0.101559785648153  0.0000
  O2     O2        0.911622919358143    0.837167850389377    0.107563642170308  0.0000
  O3     O3        0.410824798968841    0.255820148044581    0.881296741745692  0.0000
  O2     O2        0.091157176205530    0.819501812291999    0.891841495424580  0.0000
  O3     O3        0.364038803793422    0.903910381179602    0.883907169045968  0.0000
  O2     O2        0.128415283666301    0.165276798188534    0.875766529821798  0.0000
  O2     O2        0.630681867843117    0.878078666043377    0.109135955276261  0.0000
  O2     O2        0.885385740369876    0.178316272568735    0.112537399608237  0.0000
  O3     O3        0.495122575371305    0.984743932774497    0.022650235883784  0.0000
  O2     O2        0.995886661080290    0.064725726214881    0.972020546834228  0.0000
  O1     O1        0.141195685426472    0.475588908769106    0.305999515184864  0.0000
  O2     O2        0.374146356431440    0.551361397856664    0.293857555332378  0.0000
  O2     O2        0.863607293962041    0.514318148978687    0.690238387870137  0.0000
  O2     O2        0.641352067143051    0.540537117997624    0.690252012819172  0.0000
  O3     O3        0.278491681519917    0.283619306421606    0.318738241216521  0.0000
  O3     O3        0.253070485860625    0.752669266817590    0.327388317751851  0.0000
  O2     O2        0.746404107060700    0.288400326629425    0.682782455077675  0.0000
  O2     O2        0.758367304578527    0.765925661527250    0.685852232066825  0.0000
  O3     O3        0.170154016730364    0.223630308702653    0.115380600994676  0.0000
  O2     O2        0.337308495250823    0.804309268087909    0.125130173355566  0.0000
  O2     O2        0.847336745073720    0.274556040596181    0.874657102063389  0.0000
  O2     O2        0.656411221451159    0.787559549885579    0.869373513694950  0.0000
  O2     O2        0.866829831047432    0.757473788462312    0.870836486022129  0.0000
  O2     O2        0.644427451062407    0.294555164462079    0.870492612082114  0.0000
  O3     O3        0.138469683982837    0.760382166495701    0.128719201664202  0.0000
  O2     O2        0.365900433437421    0.303530727466526    0.115030146564460  0.0000
  O2     O2        0.640986034810114    0.543580016016031    0.047936495180834  0.0000
  O2     O2        0.871480689840268    0.512965634743026    0.054690057021289  0.0000
  O2     O2        0.368390429960080    0.569849213356942    0.948204700455489  0.0000
  O2     O2        0.131908449917218    0.493805729551407    0.967484932783273  0.0000
  O2     O2        0.748115487649188    0.300361056885713    0.062307455124956  0.0000
  O2     O2        0.764371891486467    0.755995058810936    0.053837477807938  0.0000
  O2     O2        0.261747409276702    0.318678280468280    0.926430843765643  0.0000
  O2     O2        0.236564680515523    0.742525507153635    0.937285178303583  0.0000
