data_c00300.vasp
_audit_creation_method             Generated by GULP
_audit_author_name                 Salvador R. G. Balestra
_symmetry_space_group_name_H-M     'P 1             '
_symmetry_Int_Tables_number        1

loop_
_symmetry_equiv_pos_site_id
_symmetry_equiv_pos_as_xyz
_cell_length_a                       17.1686
_cell_length_b                        7.6132
_cell_length_c                       10.2677
_cell_angle_alpha                   90.7063
_cell_angle_beta                    90.4234
_cell_angle_gamma                   89.8625

loop_
_atom_site_label
_atom_site_type_symbol
_atom_site_fract_x
_atom_site_fract_y
_atom_site_fract_z
_atom_site_charge
  Ge     Ge        0.052090000000021    0.000000000000000    0.372269999999958  0.0000
  Ge     Ge        0.947844805127439    0.988019945386773    0.102139546083500  0.0000
  Ge     Ge        0.156605677521205    0.311872834160215    0.289446491964916  0.0000
  Ge     Ge        0.169858652543272    0.707648737103753    0.974091754231752  0.0000
  Si     Si        0.455098024546131    0.982686866732164    0.371253923600877  0.0000
  Si     Si        0.945083818543128    0.993537054184596    0.621449666097861  0.0000
  Si     Si        0.548345074613856    0.980695893117621    0.637476087397177  0.0000
  Si     Si        0.557912130634781    0.983906765731995    0.123637722082947  0.0000
  Si     Si        0.443124244334661    0.976864263127156    0.887769931991104  0.0000
  Si     Si        0.057579319890378    0.988475064106093    0.858376947659022  0.0000
  Si     Si        0.352461795171425    0.673578035156865    0.275507367745648  0.0000
  Si     Si        0.843184124747797    0.298457686900133    0.722121372435623  0.0000
  Si     Si        0.652833756878996    0.674294991200849    0.721183524087181  0.0000
  Si     Si        0.831597584707243    0.704258441348419    0.726639053509511  0.0000
  Si     Si        0.663820141165795    0.271246385666357    0.720023046927093  0.0000
  Si     Si        0.172976018258163    0.724653389460051    0.281012516460893  0.0000
  Si     Si        0.338699733301125    0.273523345619343    0.283833201107357  0.0000
  Si     Si        0.667287484120984    0.269616222910515    0.024060475903734  0.0000
  Si     Si        0.828340549339216    0.704444832130240    0.029946106628079  0.0000
  Si     Si        0.330506160243861    0.263348378438146    0.977939396310793  0.0000
  Si     Si        0.351594316675796    0.658393231439794    0.970464241234480  0.0000
  Si     Si        0.149953135326113    0.298170476337960    0.983495815208488  0.0000
  Si     Si        0.649792019479056    0.666354348899901    0.025564501580650  0.0000
  Si     Si        0.847212146509438    0.305766859867546    0.024683475396945  0.0000
  O1     O1        0.092318115052721    0.204609743237924    0.385989002768603  0.0000
  O2     O2        0.411800530116076    0.796511920464240    0.355129322499072  0.0000
  O2     O2        0.900660916732942    0.180210724641875    0.635190534972328  0.0000
  O2     O2        0.593595861869923    0.794686719701156    0.640165002255835  0.0000
  O2     O2        0.885674383979266    0.834680873739098    0.647206915790451  0.0000
  O2     O2        0.611652081768693    0.137069810682383    0.636033520021969  0.0000
  O3     O3        0.130203251697727    0.854461908470460    0.379679078859784  0.0000
  O2     O2        0.393079831590351    0.140319920626061    0.362272622069012  0.0000
  O3     O3        0.976134251490268    0.970259287008416    0.477204219226593  0.0000
  O2     O2        0.495503052795178    0.989977374852242    0.510622426388762  0.0000
  O1     O1        0.013599089862931    0.959472443591343    0.220724190137862  0.0000
  O2     O2        0.521829094442345    0.005046139980154    0.265006728820153  0.0000
  O2     O2        0.021995967961630    0.991889116177728    0.712816512934540  0.0000
  O2     O2        0.491476113747036    0.005298099611576    0.758778289747297  0.0000
  O2     O2        0.626378290901138    0.126267928678192    0.112312837601925  0.0000
  O3     O3        0.871857113934079    0.840783544033368    0.120055210496326  0.0000
  O2     O2        0.370428068323530    0.112093132943499    0.890958301297958  0.0000
  O3     O3        0.125175996171998    0.844325232873074    0.865197257911138  0.0000
  O2     O2        0.412398155133547    0.776171943083287    0.890654338240305  0.0000
  O2     O2        0.092297351437668    0.180682358942100    0.894479200366372  0.0000
  O2     O2        0.591295591047455    0.786581053202792    0.108443015204864  0.0000
  O3     O3        0.907471726431370    0.197054827647357    0.108791166076203  0.0000
  O2     O2        0.494341569534996    0.024677470109543    0.013879239254323  0.0000
  O3     O3        0.990030903838306    0.935286562123724    0.955492303743924  0.0000
  O3     O3        0.136717471527718    0.532029185461990    0.294217629335150  0.0000
  O2     O2        0.372188360820305    0.470678234373633    0.304059546365668  0.0000
  O2     O2        0.859763649835086    0.504282618585116    0.698681876597570  0.0000
  O2     O2        0.636171970367820    0.469679643426381    0.690258967481546  0.0000
  O3     O3        0.251472119967413    0.265674110849785    0.335703118869670  0.0000
  O2     O2        0.264508366402349    0.714231322830008    0.318947777925141  0.0000
  O2     O2        0.754461880107127    0.251750020455231    0.682257621069220  0.0000
  O2     O2        0.741342472453719    0.722593468536678    0.682716090046308  0.0000
  O3     O3        0.140109503891087    0.236831819360648    0.131047266472075  0.0000
  O2     O2        0.360014013213636    0.711922794779267    0.122474774144181  0.0000
  O2     O2        0.859450461055447    0.252714422111878    0.872738154593271  0.0000
  O2     O2        0.638760057610881    0.712119023439367    0.873832977066010  0.0000
  O2     O2        0.837970527393656    0.755039405712637    0.878398457613266  0.0000
  O2     O2        0.654816969000214    0.224840786906191    0.871745745228078  0.0000
  O3     O3        0.164582909843443    0.787424411360386    0.131896770081664  0.0000
  O2     O2        0.337414586986886    0.221033351080392    0.130879179456929  0.0000
  O2     O2        0.631146741626844    0.462606064736127    0.052835040385147  0.0000
  O2     O2        0.864335411834146    0.510496996823061    0.049683620195113  0.0000
  O2     O2        0.370494796437098    0.451437720582385    0.948993990983407  0.0000
  O3     O3        0.128236190553036    0.500841141996702    0.968643088962388  0.0000
  O2     O2        0.758161349591990    0.263968883990099    0.061398225536280  0.0000
  O2     O2        0.737887242482893    0.706125551962218    0.068492539862006  0.0000
  O2     O2        0.239663490125706    0.270440672698002    0.939137320629564  0.0000
  O3     O3        0.264933614868514    0.695594526581889    0.923203365007243  0.0000
