data_c00332.vasp
_audit_creation_method             Generated by GULP
_audit_author_name                 Salvador R. G. Balestra
_symmetry_space_group_name_H-M     'P 1             '
_symmetry_Int_Tables_number        1

loop_
_symmetry_equiv_pos_site_id
_symmetry_equiv_pos_as_xyz
_cell_length_a                       17.1978
_cell_length_b                        7.6295
_cell_length_c                       10.2419
_cell_angle_alpha                   90.8555
_cell_angle_beta                    90.1946
_cell_angle_gamma                   90.2134

loop_
_atom_site_label
_atom_site_type_symbol
_atom_site_fract_x
_atom_site_fract_y
_atom_site_fract_z
_atom_site_charge
  Ge     Ge        0.052090000000021    0.000000000000000    0.372269999999958  0.0000
  Ge     Ge        0.938857500567139    0.998925618806639    0.110737199481374  0.0000
  Ge     Ge        0.654509239559477    0.662750697574950    0.706503194157837  0.0000
  Ge     Ge        0.330173057027534    0.270631853480197    0.972570681564024  0.0000
  Si     Si        0.450443927131121    0.991214525600082    0.374363668587760  0.0000
  Si     Si        0.951756540678603    0.988035815490902    0.633653004059430  0.0000
  Si     Si        0.550375657852083    0.966920522543105    0.629613973785499  0.0000
  Si     Si        0.549524523714788    0.991186492979485    0.119178607530654  0.0000
  Si     Si        0.440269141377807    0.983756158578299    0.877592494900785  0.0000
  Si     Si        0.053811903054699    0.988556408882073    0.877119935552607  0.0000
  Si     Si        0.157772604742471    0.309326416663871    0.294873223245993  0.0000
  Si     Si        0.349525534304407    0.681753591011766    0.281633603302000  0.0000
  Si     Si        0.846262878859936    0.290540892780705    0.736535910241405  0.0000
  Si     Si        0.835443323608487    0.695979177835891    0.726496792215231  0.0000
  Si     Si        0.667182087080666    0.254891975111561    0.720935394875389  0.0000
  Si     Si        0.170002693443549    0.712345636079847    0.293035874483008  0.0000
  Si     Si        0.336431574715746    0.277100259832180    0.283392986152290  0.0000
  Si     Si        0.661321120400737    0.277832722833103    0.026536413430412  0.0000
  Si     Si        0.821042157434024    0.712069289216037    0.031740083466766  0.0000
  Si     Si        0.163562162711953    0.704511350822352    0.990051399879951  0.0000
  Si     Si        0.344904200792847    0.675544326696768    0.978737827015024  0.0000
  Si     Si        0.148108214431999    0.303417092362809    0.989457047960712  0.0000
  Si     Si        0.642895793930457    0.674590458014547    0.018065900277825  0.0000
  Si     Si        0.840505501686935    0.315631519832267    0.039428441513294  0.0000
  O3     O3        0.099494067567059    0.200445414148092    0.381938115051280  0.0000
  O2     O2        0.407424031163814    0.802530981029559    0.367269674665477  0.0000
  O2     O2        0.905839117634054    0.169463618030559    0.657325451907752  0.0000
  O3     O3        0.589865728049893    0.779349035742045    0.613023254362407  0.0000
  O2     O2        0.895978190761706    0.820845406503437    0.654292166862200  0.0000
  O2     O2        0.621522815194752    0.105336024168668    0.640583664489549  0.0000
  O3     O3        0.123113922847445    0.840422166648694    0.385992400913283  0.0000
  O2     O2        0.388113925761461    0.147809668742642    0.369638188266187  0.0000
  O3     O3        0.980265085910938    0.984179389373595    0.486655778192239  0.0000
  O2     O2        0.494961552794458    0.011313942010396    0.510132857947855  0.0000
  O1     O1        0.007040454351299    0.967750722765108    0.225653521147762  0.0000
  O2     O2        0.513685708099004    0.007268804311228    0.261566420595370  0.0000
  O2     O2        0.028652256982380    0.981518445734388    0.725173979826760  0.0000
  O2     O2        0.498506507981078    0.977463845432602    0.758707193079158  0.0000
  O2     O2        0.617141948866195    0.137003881444006    0.113141724611571  0.0000
  O3     O3        0.862307299624979    0.852076463355191    0.122758711471433  0.0000
  O3     O3        0.375739790882986    0.132133304486583    0.864411254618576  0.0000
  O2     O2        0.120003655096159    0.842688685837641    0.899781011121803  0.0000
  O2     O2        0.396929950286533    0.796816848107462    0.887431534164755  0.0000
  O2     O2        0.084536656658945    0.183878297177486    0.914843514144604  0.0000
  O2     O2        0.583002100354181    0.795610608661979    0.098579437921942  0.0000
  O3     O3        0.898441137872847    0.206347520103866    0.127023778178172  0.0000
  O2     O2        0.485239208673371    0.035473276085844    0.011153035856729  0.0000
  O3     O3        0.978727200270486    0.948364791884813    0.960662449266734  0.0000
  O2     O2        0.141394991281193    0.514397780575995    0.317326318963076  0.0000
  O2     O2        0.367124521274480    0.476780762824067    0.303233519656822  0.0000
  O2     O2        0.864050915159288    0.494600201757980    0.709814882830045  0.0000
  O3     O3        0.636264054401447    0.443059328293923    0.680837284117609  0.0000
  O2     O2        0.247083957744357    0.265174111795721    0.330291992132642  0.0000
  O2     O2        0.261726366000258    0.726388586125122    0.323317767097810  0.0000
  O2     O2        0.758992540535699    0.243307140230251    0.689154245239082  0.0000
  O3     O3        0.749699677162313    0.710568695870445    0.666645763612487  0.0000
  O2     O2        0.143054524330880    0.257514633260372    0.142702802639331  0.0000
  O2     O2        0.361961536232435    0.726698742282301    0.129900729563467  0.0000
  O2     O2        0.855821605329578    0.252042112436254    0.889887743144043  0.0000
  O3     O3        0.635134131928133    0.718424807762876    0.867004890624766  0.0000
  O2     O2        0.829883516814442    0.752904950621771    0.878265573241555  0.0000
  O2     O2        0.655217072034532    0.223338917284470    0.874777983897865  0.0000
  O2     O2        0.154659258711366    0.762510767482965    0.141481977475096  0.0000
  O3     O3        0.341787469958753    0.216123284939917    0.133947996868948  0.0000
  O2     O2        0.623196751534522    0.470359502002849    0.044755310370084  0.0000
  O2     O2        0.858013787778574    0.521122123324826    0.058601914248422  0.0000
  O3     O3        0.367017622472985    0.477923012028270    0.948729515411152  0.0000
  O2     O2        0.128406707457711    0.509065164975717    0.968433247759160  0.0000
  O2     O2        0.750509926561947    0.278738658316021    0.073665242366872  0.0000
  O2     O2        0.730160208129695    0.712863965585414    0.067343899046860  0.0000
  O3     O3        0.232542375976164    0.262934345723643    0.934658086012120  0.0000
  O2     O2        0.253672367389128    0.704847102521696    0.949465029792678  0.0000
