data_c00396.vasp
_audit_creation_method             Generated by GULP
_audit_author_name                 Salvador R. G. Balestra
_symmetry_space_group_name_H-M     'P 1             '
_symmetry_Int_Tables_number        1

loop_
_symmetry_equiv_pos_site_id
_symmetry_equiv_pos_as_xyz
_cell_length_a                       17.0660
_cell_length_b                        7.6125
_cell_length_c                       10.3722
_cell_angle_alpha                   89.9263
_cell_angle_beta                    90.8174
_cell_angle_gamma                   89.5221

loop_
_atom_site_label
_atom_site_type_symbol
_atom_site_fract_x
_atom_site_fract_y
_atom_site_fract_z
_atom_site_charge
  Ge     Ge        0.052090000000021    0.000000000000000    0.372269999999958  0.0000
  Ge     Ge        0.437681190397539    0.973437242256006    0.861647338075141  0.0000
  Ge     Ge        0.842254620351876    0.307758868394665    0.701741043756323  0.0000
  Ge     Ge        0.167198911743518    0.713361891232602    0.970626844205429  0.0000
  Si     Si        0.453166580968553    0.977956211694094    0.347741937385250  0.0000
  Si     Si        0.947790204808960    0.001334542881572    0.627230303543017  0.0000
  Si     Si        0.542439400208873    0.991542590549807    0.614150622014842  0.0000
  Si     Si        0.556309143612979    0.994566031978657    0.098785130917538  0.0000
  Si     Si        0.943088762727118    0.988777241141224    0.118739720386254  0.0000
  Si     Si        0.051370857946414    0.998239866976447    0.882691175741552  0.0000
  Si     Si        0.153635841440619    0.309694002954068    0.279274707515273  0.0000
  Si     Si        0.352292172620885    0.665384411355591    0.266017996271321  0.0000
  Si     Si        0.649326977001978    0.687547396614910    0.714476230891043  0.0000
  Si     Si        0.830432854467031    0.718581899116278    0.712370795403487  0.0000
  Si     Si        0.658984102193816    0.282134151266159    0.709068731992601  0.0000
  Si     Si        0.173666373624510    0.716806424663727    0.274678162131999  0.0000
  Si     Si        0.334132332166522    0.263757264575864    0.271645495229915  0.0000
  Si     Si        0.667497641195441    0.279205339956516    0.012216863387097  0.0000
  Si     Si        0.832661865089820    0.704075641441048    0.013827664752080  0.0000
  Si     Si        0.324238903447410    0.256447272909008    0.972348632205460  0.0000
  Si     Si        0.349634893615340    0.649935978254326    0.963306392801326  0.0000
  Si     Si        0.142327001644946    0.311621090530243    0.983200874995746  0.0000
  Si     Si        0.651402752681156    0.677051421793463    0.014245378907643  0.0000
  Si     Si        0.848235775261587    0.303411814071724    0.009486249006337  0.0000
  O3     O3        0.095572130840227    0.204789304573059    0.369089832646040  0.0000
  O2     O2        0.415103752073334    0.784281812437380    0.342129556384304  0.0000
  O3     O3        0.906502513408868    0.189697899680946    0.608773570356337  0.0000
  O2     O2        0.589627437988372    0.809280963367893    0.634674999669421  0.0000
  O2     O2        0.876947416467538    0.861020105192625    0.630365443811274  0.0000
  O2     O2        0.599590265435111    0.156617113917546    0.633494905288851  0.0000
  O3     O3        0.125067583505183    0.842981139345910    0.365212065771771  0.0000
  O2     O2        0.384520795427692    0.125195620744412    0.355899502650970  0.0000
  O3     O3        0.009344996071164    0.963690843943349    0.518720258094358  0.0000
  O2     O2        0.510034863573324    0.993294107211524    0.469452773333659  0.0000
  O3     O3        0.977755261569109    0.977730435541617    0.260707675122977  0.0000
  O2     O2        0.504458718457595    0.015324090492359    0.223434942762938  0.0000
  O2     O2        0.992177893891770    0.992603098634673    0.764369797334508  0.0000
  O3     O3        0.469499378133627    0.003245684274591    0.707804137280857  0.0000
  O2     O2        0.624945868939033    0.139299549575331    0.101596596946862  0.0000
  O2     O2        0.876346244571370    0.840906372034615    0.105573060473308  0.0000
  O3     O3        0.355700810430629    0.105453264471522    0.882410909465636  0.0000
  O3     O3        0.121058882965973    0.859190690990743    0.867844569410101  0.0000
  O3     O3        0.412038425686306    0.756575230584988    0.883328381333354  0.0000
  O2     O2        0.085927804563691    0.194490364971698    0.893952715950419  0.0000
  O2     O2        0.594125545987829    0.798493665094459    0.097922752862974  0.0000
  O2     O2        0.906587187171362    0.183233052383488    0.095379673221096  0.0000
  O3     O3        0.507044698961218    0.038536263113863    0.971375050692210  0.0000
  O2     O2        0.009486107767336    0.943130767162103    0.015342224136963  0.0000
  O2     O2        0.141644956603055    0.518440511486018    0.290125260207341  0.0000
  O2     O2        0.368164994891501    0.459377814270298    0.294419890033113  0.0000
  O3     O3        0.860601829049191    0.526690263446965    0.676453963977468  0.0000
  O2     O2        0.632268426194929    0.484139082137508    0.684729741828492  0.0000
  O2     O2        0.243698375104509    0.257978053365347    0.314424407728220  0.0000
  O2     O2        0.265708651428100    0.717832935103281    0.313254906205393  0.0000
  O3     O3        0.746552948167688    0.258246014742937    0.660327891941674  0.0000
  O2     O2        0.738058058203450    0.733897122316284    0.677445722938841  0.0000
  O2     O2        0.132619723544975    0.251777133813819    0.132318609454613  0.0000
  O2     O2        0.358508617296065    0.703801331911131    0.113981892510915  0.0000
  O3     O3        0.859461092589601    0.254905611597428    0.861540425760070  0.0000
  O2     O2        0.635185938164852    0.726879887927440    0.865034347193631  0.0000
  O2     O2        0.842550636841342    0.755722655317422    0.864504227550844  0.0000
  O2     O2        0.657248645704971    0.235835284431773    0.860947836770497  0.0000
  O3     O3        0.163899110598128    0.782886867125375    0.128611712276777  0.0000
  O2     O2        0.339411233798796    0.207155566913570    0.122349450024543  0.0000
  O2     O2        0.632254497678465    0.473381531027557    0.040322664860987  0.0000
  O2     O2        0.867867325077091    0.508200704241651    0.035565697895624  0.0000
  O2     O2        0.366133528747366    0.442419505726303    0.944237429481512  0.0000
  O3     O3        0.120690617785657    0.512391190726046    0.961404446157105  0.0000
  O2     O2        0.758868943762581    0.270072424119521    0.049875446651852  0.0000
  O2     O2        0.741606678042721    0.711988823731544    0.050862031527823  0.0000
  O2     O2        0.232200850978787    0.281141948484350    0.943965069757991  0.0000
  O3     O3        0.262061026642422    0.698194368230962    0.918126733641016  0.0000
