data_c00379.vasp
_audit_creation_method             Generated by GULP
_audit_author_name                 Salvador R. G. Balestra
_symmetry_space_group_name_H-M     'P 1             '
_symmetry_Int_Tables_number        1

loop_
_symmetry_equiv_pos_site_id
_symmetry_equiv_pos_as_xyz
_cell_length_a                       17.1684
_cell_length_b                        7.6264
_cell_length_c                       10.2939
_cell_angle_alpha                   89.6650
_cell_angle_beta                    90.3525
_cell_angle_gamma                   90.2644

loop_
_atom_site_label
_atom_site_type_symbol
_atom_site_fract_x
_atom_site_fract_y
_atom_site_fract_z
_atom_site_charge
  Ge     Ge        0.052090000000021    0.000000000000000    0.372269999999958  0.0000
  Ge     Ge        0.438796378504417    0.029174284815146    0.847611235716890  0.0000
  Ge     Ge        0.336632510848043    0.739188433878029    0.268829274802805  0.0000
  Ge     Ge        0.846869634309493    0.703994632666902    0.706178859670415  0.0000
  Si     Si        0.457239501923000    0.021572295981967    0.346172772252421  0.0000
  Si     Si        0.953872682741445    0.011201102512484    0.633566730719293  0.0000
  Si     Si        0.550766345051686    0.021022598473103    0.605371561176852  0.0000
  Si     Si        0.555039518872707    0.009977676633039    0.089833097815001  0.0000
  Si     Si        0.939727510644435    0.010939539357401    0.127146302882950  0.0000
  Si     Si        0.053214668868311    0.010171101975600    0.892786360229903  0.0000
  Si     Si        0.174337447194920    0.286172868679323    0.271071611569381  0.0000
  Si     Si        0.835764860147696    0.293138564966567    0.713345483147575  0.0000
  Si     Si        0.664627544582654    0.726670808702591    0.704982830699218  0.0000
  Si     Si        0.655687281689317    0.322454586968378    0.708940054895924  0.0000
  Si     Si        0.154007457098295    0.688981128490250    0.280485713118840  0.0000
  Si     Si        0.353888530625368    0.326997324110010    0.260935512709793  0.0000
  Si     Si        0.652201467165328    0.326587234054111    0.011525954181334  0.0000
  Si     Si        0.846620424977607    0.699995225986603    0.016256979261257  0.0000
  Si     Si        0.346478838099413    0.343157718738465    0.960151679957162  0.0000
  Si     Si        0.148028236292689    0.694126191985228    0.976804447049180  0.0000
  Si     Si        0.327364696288324    0.745417248034290    0.962982895052960  0.0000
  Si     Si        0.167183570279848    0.298115730999443    0.968367500627015  0.0000
  Si     Si        0.667233735822262    0.723061576523065    0.010999949381170  0.0000
  Si     Si        0.832421163083823    0.299845535371984    0.016795008734676  0.0000
  O3     O3        0.127758796762832    0.146735579699563    0.353679234298199  0.0000
  O3     O3        0.392769998896108    0.872110086948097    0.365942451409548  0.0000
  O2     O2        0.883640126548887    0.152484264098071    0.631500180014974  0.0000
  O2     O2        0.605852389988821    0.853849189157353    0.629727378555303  0.0000
  O3     O3        0.912989738375493    0.823104139925853    0.617169708864338  0.0000
  O2     O2        0.598452025877071    0.201046102909663    0.626067935404240  0.0000
  O3     O3        0.091146184870831    0.792219530227714    0.363064811573795  0.0000
  O2     O2        0.413898814011742    0.208970633451714    0.342890166712331  0.0000
  O3     O3        0.016664402666124    0.042557991692597    0.524533794015031  0.0000
  O2     O2        0.522542771113024    0.018876647225122    0.456950474065474  0.0000
  O3     O3        0.973380609971552    0.025335227539606    0.270209203167664  0.0000
  O2     O2        0.499030509759115    0.983493460578244    0.210321972815574  0.0000
  O2     O2        0.996560898739395    0.027133691790913    0.771999687694411  0.0000
  O3     O3        0.474942563361647    0.014596768399030    0.693467399685841  0.0000
  O2     O2        0.594187123616562    0.203949497965768    0.093811830513972  0.0000
  O2     O2        0.901923430859431    0.818447546574854    0.106920538800184  0.0000
  O3     O3        0.403080084034554    0.238801654932630    0.867935430904792  0.0000
  O2     O2        0.089210945872182    0.814605930324814    0.894136369008820  0.0000
  O3     O3        0.364616882578821    0.876939769080255    0.861306819900232  0.0000
  O2     O2        0.121197978037711    0.156830080847481    0.881795807553714  0.0000
  O2     O2        0.622076742950595    0.862462570080738    0.096986961615472  0.0000
  O2     O2        0.875098037336355    0.161643488898887    0.109206077779663  0.0000
  O3     O3        0.510103953634256    0.975919969379998    0.957010650775373  0.0000
  O2     O2        0.008777861522577    0.046456799675904    0.026139983073954  0.0000
  O2     O2        0.143736514563884    0.480946888505103    0.302575856262876  0.0000
  O3     O3        0.370841867921994    0.528077253624339    0.286668966498423  0.0000
  O3     O3        0.865829499894013    0.485739379475605    0.680447407577731  0.0000
  O2     O2        0.638590051019120    0.525741665575325    0.677794234510196  0.0000
  O2     O2        0.266054184651121    0.277190124435201    0.304405925608108  0.0000
  O3     O3        0.240919161318512    0.747009970495864    0.318220582103503  0.0000
  O2     O2        0.744662568711190    0.277894848801312    0.674582627599979  0.0000
  O3     O3        0.752495104993835    0.752925655183213    0.659214608262442  0.0000
  O2     O2        0.161552054710054    0.243533833609727    0.119123151383092  0.0000
  O3     O3        0.342704015796714    0.808862012835555    0.109214831579715  0.0000
  O2     O2        0.844767683852564    0.251249325885572    0.866610407169675  0.0000
  O2     O2        0.661018590643790    0.767277126038040    0.858324804880160  0.0000
  O3     O3        0.860406588369462    0.753505234614312    0.868211421938807  0.0000
  O2     O2        0.639071846249069    0.281727582851126    0.860078314213758  0.0000
  O2     O2        0.138414888874929    0.736635308418395    0.128828533087159  0.0000
  O2     O2        0.363416605325036    0.281800144694497    0.108265797723101  0.0000
  O2     O2        0.631854269911810    0.529172117524076    0.038366128567368  0.0000
  O2     O2        0.866528564640324    0.495100675500058    0.040850787829746  0.0000
  O2     O2        0.362747149845877    0.550241086480438    0.947350826509398  0.0000
  O2     O2        0.129264385664442    0.490457294153726    0.947249765836631  0.0000
  O2     O2        0.741311314739342    0.290884725996325    0.051381038920858  0.0000
  O2     O2        0.757005888505210    0.731247817165841    0.054191201121804  0.0000
  O2     O2        0.256694652198949    0.300017838544099    0.923514384379184  0.0000
  O2     O2        0.235332638489848    0.737917563701714    0.934177596806699  0.0000
