data_c00394.vasp
_audit_creation_method             Generated by GULP
_audit_author_name                 Salvador R. G. Balestra
_symmetry_space_group_name_H-M     'P 1             '
_symmetry_Int_Tables_number        1

loop_
_symmetry_equiv_pos_site_id
_symmetry_equiv_pos_as_xyz
_cell_length_a                       17.1344
_cell_length_b                        7.6041
_cell_length_c                       10.3093
_cell_angle_alpha                   88.9186
_cell_angle_beta                    91.5547
_cell_angle_gamma                   89.9775

loop_
_atom_site_label
_atom_site_type_symbol
_atom_site_fract_x
_atom_site_fract_y
_atom_site_fract_z
_atom_site_charge
  Ge     Ge        0.052090000000021    0.000000000000000    0.372269999999958  0.0000
  Ge     Ge        0.432874263451141    0.026886892432141    0.846915222745948  0.0000
  Ge     Ge        0.828083176566264    0.294944703490009    0.697943466543489  0.0000
  Ge     Ge        0.846985109185904    0.679612779338874    0.017179108708427  0.0000
  Si     Si        0.452326872976020    0.016843902023187    0.339738339040258  0.0000
  Si     Si        0.947012669492736    0.012474463536370    0.625419759236901  0.0000
  Si     Si        0.543141166732536    0.028503762898292    0.605618901285727  0.0000
  Si     Si        0.552171362168650    0.002997448285494    0.087460238619824  0.0000
  Si     Si        0.938783222526185    0.995720678090641    0.124884101394891  0.0000
  Si     Si        0.045665697550002    0.016634856133740    0.886384547077968  0.0000
  Si     Si        0.170662875833507    0.288979780108061    0.269160698760272  0.0000
  Si     Si        0.334565385918984    0.733043313695150    0.259619264235363  0.0000
  Si     Si        0.662091261302747    0.737387479163896    0.710375496736106  0.0000
  Si     Si        0.841560253657325    0.709457214290789    0.709801773878693  0.0000
  Si     Si        0.645708206289709    0.334751984831824    0.696417926441693  0.0000
  Si     Si        0.154485043248081    0.694191964630843    0.271945369873848  0.0000
  Si     Si        0.349525997322746    0.327887911114287    0.257538249779981  0.0000
  Si     Si        0.647861727244435    0.321615679883542    0.000286095001727  0.0000
  Si     Si        0.340644206882267    0.342466596660985    0.955867393067835  0.0000
  Si     Si        0.141175020926031    0.698714141531972    0.971926167003626  0.0000
  Si     Si        0.321331626554360    0.742356390040475    0.958689489346688  0.0000
  Si     Si        0.160787337420198    0.299725689706981    0.967464434965568  0.0000
  Si     Si        0.664998956795617    0.715118089553418    0.015487970962050  0.0000
  Si     Si        0.827612199127701    0.272386653520771    0.004813186754287  0.0000
  O3     O3        0.123073571596268    0.159146057364588    0.358305725713359  0.0000
  O2     O2        0.386564994126798    0.864196970470492    0.346307340814079  0.0000
  O3     O3        0.885276273436622    0.169467498259701    0.601409429277809  0.0000
  O2     O2        0.609407927406319    0.882739593302483    0.636839899324512  0.0000
  O2     O2        0.898149504449199    0.830687558118215    0.623731939470988  0.0000
  O2     O2        0.580708921451889    0.222780162064545    0.618576804278959  0.0000
  O3     O3        0.097527797159985    0.798511188704548    0.361050257260343  0.0000
  O2     O2        0.410908930430487    0.207958726506467    0.339703757184322  0.0000
  O3     O3        0.014655393963721    0.011083915931551    0.524230171744428  0.0000
  O2     O2        0.512337055550448    0.001156106231595    0.459740531183835  0.0000
  O3     O3        0.974117642956529    0.029639799434782    0.266061485977701  0.0000
  O2     O2        0.500267113765102    0.990482713459846    0.211700727389091  0.0000
  O2     O2        0.987372883523845    0.045128321625472    0.765986409605672  0.0000
  O3     O3        0.469188172826716    0.009099796630685    0.695079846173729  0.0000
  O2     O2        0.590771232205034    0.196429010007835    0.080087388809498  0.0000
  O3     O3        0.912366277943988    0.794153234938924    0.112725586103637  0.0000
  O3     O3        0.397679223321947    0.237291723591054    0.867292317616941  0.0000
  O2     O2        0.081495136040341    0.819105522536836    0.885892375052286  0.0000
  O3     O3        0.355758083670928    0.882620155674861    0.861758772526049  0.0000
  O2     O2        0.114265901125292    0.161830399714566    0.878900883136642  0.0000
  O2     O2        0.618641882043049    0.853232328520163    0.099558540794428  0.0000
  O2     O2        0.863194956601413    0.119775021538724    0.098655298170331  0.0000
  O3     O3        0.503122291176714    0.963108172039045    0.958426152977933  0.0000
  O2     O2        0.002101612283333    0.049343098275844    0.019046759421925  0.0000
  O2     O2        0.142790839491347    0.486998537284279    0.295922789674300  0.0000
  O2     O2        0.364789797238895    0.533415918792076    0.284112450777181  0.0000
  O3     O3        0.861176237474873    0.508281825195912    0.687082750901500  0.0000
  O2     O2        0.629061010702179    0.543491775408506    0.677727919597508  0.0000
  O2     O2        0.263001723439379    0.274426577843533    0.300984384744944  0.0000
  O2     O2        0.244614602788184    0.747538795960463    0.300250987871730  0.0000
  O3     O3        0.730946459169260    0.290350232120395    0.647956246055694  0.0000
  O2     O2        0.751434781672161    0.751093404639649    0.665509480428920  0.0000
  O2     O2        0.155255921414521    0.242502219200404    0.118311491731979  0.0000
  O2     O2        0.340979057380665    0.789910698866681    0.108551884692890  0.0000
  O3     O3        0.833036714099345    0.217997117724428    0.856290293806728  0.0000
  O2     O2        0.662541888535945    0.771898117224471    0.863657056188713  0.0000
  O3     O3        0.854816237233462    0.755885907839060    0.859666215643442  0.0000
  O2     O2        0.637549749712626    0.281231510622456    0.847901173277690  0.0000
  O2     O2        0.130228594814672    0.744276425120634    0.122698401260812  0.0000
  O2     O2        0.359501216108556    0.287803740053235    0.105850540688109  0.0000
  O2     O2        0.625273585909396    0.522354912668908    0.029706961134105  0.0000
  O3     O3        0.869707239167591    0.458367362284559    0.026329845984560  0.0000
  O2     O2        0.355715107734998    0.549070933639315    0.932386880312123  0.0000
  O2     O2        0.123080130502340    0.493959002088675    0.945837533425204  0.0000
  O2     O2        0.737447249744371    0.290958275070203    0.043388006810394  0.0000
  O3     O3        0.753045164530106    0.709523177278442    0.068011670989105  0.0000
  O2     O2        0.250031771320563    0.298398067469634    0.923619268140595  0.0000
  O2     O2        0.228636097626787    0.741944724104350    0.932651629445199  0.0000
