data_c00383.vasp
_audit_creation_method             Generated by GULP
_audit_author_name                 Salvador R. G. Balestra
_symmetry_space_group_name_H-M     'P 1             '
_symmetry_Int_Tables_number        1

loop_
_symmetry_equiv_pos_site_id
_symmetry_equiv_pos_as_xyz
_cell_length_a                       17.2657
_cell_length_b                        7.6488
_cell_length_c                       10.1439
_cell_angle_alpha                   89.4790
_cell_angle_beta                    90.7818
_cell_angle_gamma                   89.5793

loop_
_atom_site_label
_atom_site_type_symbol
_atom_site_fract_x
_atom_site_fract_y
_atom_site_fract_z
_atom_site_charge
  Ge     Ge        0.052090000000021    0.000000000000000    0.372269999999958  0.0000
  Ge     Ge        0.434457606896941    0.995164576325419    0.884449725078210  0.0000
  Ge     Ge        0.350168897795090    0.674722146314372    0.279559405828945  0.0000
  Ge     Ge        0.827451160883014    0.709557741671382    0.037288416681896  0.0000
  Si     Si        0.454562128161730    0.977668478936838    0.375430930479808  0.0000
  Si     Si        0.944859096084471    0.003436389057023    0.626968160931221  0.0000
  Si     Si        0.550755098725818    0.999176106789187    0.637057098918201  0.0000
  Si     Si        0.550272859091718    0.997586706882432    0.123429822375124  0.0000
  Si     Si        0.939684769576656    0.996892085911054    0.118064095508534  0.0000
  Si     Si        0.046853958066744    0.003773977442185    0.879272716056608  0.0000
  Si     Si        0.158830618366909    0.302669566283604    0.292700182419852  0.0000
  Si     Si        0.840861525190492    0.306281499671370    0.725056239568149  0.0000
  Si     Si        0.656534727452213    0.690131436967805    0.710600049106924  0.0000
  Si     Si        0.832983980722452    0.710863613710109    0.722490334536794  0.0000
  Si     Si        0.662259170037944    0.290761832982169    0.713410249044196  0.0000
  Si     Si        0.168316461087280    0.705978937076945    0.296714717731283  0.0000
  Si     Si        0.336599624998455    0.263939195450916    0.269606011994727  0.0000
  Si     Si        0.659442111721261    0.288359128252242    0.021501170181978  0.0000
  Si     Si        0.320458501607096    0.281567919184584    0.963373127169009  0.0000
  Si     Si        0.157669558608707    0.712077195902672    0.988878606545246  0.0000
  Si     Si        0.336810717015733    0.681227638256332    0.968221088897870  0.0000
  Si     Si        0.142909266711716    0.312795433645181    0.986532632356393  0.0000
  Si     Si        0.647677808154419    0.685144314136860    0.021967628760699  0.0000
  Si     Si        0.839464279944249    0.306173744145470    0.031915718340364  0.0000
  O3     O3        0.105551426682425    0.189106479117089    0.385660236525939  0.0000
  O3     O3        0.417855310547856    0.786967648277190    0.370243747748553  0.0000
  O2     O2        0.897855311809183    0.185278005332564    0.642036346982083  0.0000
  O2     O2        0.597731455000126    0.815724711529340    0.629860775487070  0.0000
  O2     O2        0.888367158717744    0.838117400382234    0.641414968471175  0.0000
  O2     O2        0.611401642329279    0.158954643013945    0.626812447578560  0.0000
  O3     O3        0.116034471260641    0.826104244978768    0.387080993776913  0.0000
  O2     O2        0.385883602814460    0.116726313460526    0.346269079780220  0.0000
  O3     O3        0.978489678988531    0.995633978284011    0.482637149437107  0.0000
  O2     O2        0.488183965672606    0.012756849839596    0.520330147466494  0.0000
  O3     O3        0.009020185974063    0.992461037726756    0.219178189315366  0.0000
  O2     O2        0.525541586190059    0.996421642756148    0.275262661600000  0.0000
  O2     O2        0.017673412313328    0.995081828625231    0.728547396018781  0.0000
  O3     O3        0.505795407373307    0.013391871355413    0.771963150989692  0.0000
  O2     O2        0.615517764426763    0.144996153651877    0.106836706116155  0.0000
  O3     O3        0.879390049983969    0.842013534099701    0.139857496525419  0.0000
  O3     O3        0.362982933325622    0.154327024723058    0.865452765224284  0.0000
  O2     O2        0.110759686586819    0.852152189945688    0.901050824657737  0.0000
  O3     O3        0.389531537521405    0.794609953380199    0.872798559900197  0.0000
  O2     O2        0.082438187634887    0.195716904953015    0.905258333198020  0.0000
  O2     O2        0.582368932905263    0.805399047417001    0.086124562102257  0.0000
  O2     O2        0.891365118719159    0.178448167051365    0.123088274014136  0.0000
  O3     O3        0.476184080019429    0.040187556401567    0.035338301076024  0.0000
  O2     O2        0.974338432221314    0.968263700770349    0.972084645547145  0.0000
  O2     O2        0.142972995381593    0.505864345742491    0.318864339723876  0.0000
  O3     O3        0.370119370802294    0.454228897659793    0.296469699423318  0.0000
  O2     O2        0.860901743712091    0.510148525598263    0.702770535067108  0.0000
  O2     O2        0.635262873952041    0.489154315050463    0.680173880770196  0.0000
  O2     O2        0.248752048247820    0.257192804077245    0.322049088791478  0.0000
  O3     O3        0.258157344176299    0.723959573066271    0.332946776921738  0.0000
  O2     O2        0.752662620851689    0.268478209856764    0.679496520215018  0.0000
  O2     O2        0.744475630066787    0.729708749968636    0.668340206774756  0.0000
  O2     O2        0.138203548233052    0.258890689952791    0.140088311376638  0.0000
  O3     O3        0.358468924139054    0.736244342131473    0.116419758544940  0.0000
  O2     O2        0.851938676595721    0.258837959962084    0.878813867218691  0.0000
  O2     O2        0.648918725699652    0.725049576676741    0.865864176815460  0.0000
  O3     O3        0.835330382237922    0.765388727911898    0.873534775844108  0.0000
  O2     O2        0.649861928717710    0.245340403729932    0.867158203333920  0.0000
  O2     O2        0.154549775523343    0.761117020286738    0.142917607047967  0.0000
  O2     O2        0.335624802618262    0.220568690529221    0.114420341873992  0.0000
  O2     O2        0.625398994752675    0.482197272885970    0.048198206920198  0.0000
  O3     O3        0.863655092279600    0.501051665447771    0.061627943394335  0.0000
  O2     O2        0.353577955572346    0.476851177987314    0.945401251348899  0.0000
  O2     O2        0.122120790341286    0.518426112600739    0.967040248863934  0.0000
  O2     O2        0.749075810549369    0.281553309688381    0.064932524116019  0.0000
  O3     O3        0.731455223122777    0.722973759088969    0.081945586004021  0.0000
  O2     O2        0.228715648355085    0.278419538979159    0.932543407916489  0.0000
  O2     O2        0.245821336274598    0.718652224831003    0.941511237701163  0.0000
