data_c00389.vasp
_audit_creation_method             Generated by GULP
_audit_author_name                 Salvador R. G. Balestra
_symmetry_space_group_name_H-M     'P 1             '
_symmetry_Int_Tables_number        1

loop_
_symmetry_equiv_pos_site_id
_symmetry_equiv_pos_as_xyz
_cell_length_a                       17.3482
_cell_length_b                        7.6678
_cell_length_c                       10.0533
_cell_angle_alpha                   89.5272
_cell_angle_beta                    90.5872
_cell_angle_gamma                   89.5203

loop_
_atom_site_label
_atom_site_type_symbol
_atom_site_fract_x
_atom_site_fract_y
_atom_site_fract_z
_atom_site_charge
  Ge     Ge        0.052090000000021    0.000000000000000    0.372269999999958  0.0000
  Ge     Ge        0.435957727100413    0.009390770988903    0.890140097085046  0.0000
  Ge     Ge        0.343994368420776    0.705036445519753    0.281880169640014  0.0000
  Ge     Ge        0.828653803570994    0.299515765342730    0.042664932535110  0.0000
  Si     Si        0.454665065941597    0.000774546468346    0.381886153117135  0.0000
  Si     Si        0.943967731586371    0.007098361514021    0.626313237935213  0.0000
  Si     Si        0.552309390366141    0.023443482008279    0.643178549160702  0.0000
  Si     Si        0.551769272791455    0.016879025560277    0.130667779660833  0.0000
  Si     Si        0.939786189805870    0.005529283051666    0.118975817483708  0.0000
  Si     Si        0.046507013913728    0.018758797959191    0.878229687913327  0.0000
  Si     Si        0.163301718265011    0.298177264636448    0.291960130466585  0.0000
  Si     Si        0.833500606267128    0.302352697815232    0.724259527811291  0.0000
  Si     Si        0.662772750386495    0.725000543917906    0.714664690336513  0.0000
  Si     Si        0.840409900353686    0.705169425790698    0.725202617710543  0.0000
  Si     Si        0.657771459069849    0.327031175905353    0.714323982257127  0.0000
  Si     Si        0.163736463547685    0.701137453219784    0.302558315150565  0.0000
  Si     Si        0.341966583741694    0.292846499085081    0.273624243704767  0.0000
  Si     Si        0.649505666379223    0.327146566896211    0.028737714678427  0.0000
  Si     Si        0.838829986386587    0.701514072250731    0.035500250977691  0.0000
  Si     Si        0.330038965490565    0.314117428608589    0.966113270896666  0.0000
  Si     Si        0.150020531122197    0.712785929294194    0.991200191959071  0.0000
  Si     Si        0.326781309483538    0.716262893506688    0.967309795418742  0.0000
  Si     Si        0.151701337645804    0.312336772390546    0.983648895837984  0.0000
  Si     Si        0.659963532865822    0.722833331672432    0.026033527864077  0.0000
  O3     O3        0.112659933449816    0.177354413524197    0.384226369190834  0.0000
  O3     O3        0.411217022185955    0.818817151263676    0.371384130602608  0.0000
  O2     O2        0.888142270904595    0.174130006015336    0.642036774672456  0.0000
  O2     O2        0.611439616735848    0.859981289381766    0.628177023099013  0.0000
  O2     O2        0.897304614496179    0.827125463307062    0.642852861576626  0.0000
  O2     O2        0.599828899698187    0.203557495057625    0.634047532602721  0.0000
  O3     O3        0.108302066896305    0.814975630450589    0.393026322432189  0.0000
  O2     O2        0.393133147049401    0.155247987205498    0.355759886012046  0.0000
  O3     O3        0.976799427457336    0.012191399786832    0.479834576111592  0.0000
  O2     O2        0.486876709609606    0.020957898309085    0.530746401987468  0.0000
  O3     O3        0.010698140630809    0.994631029669910    0.216580813556919  0.0000
  O2     O2        0.527557441714587    0.013859013231534    0.284568806447178  0.0000
  O2     O2        0.017522625283152    0.012327534326085    0.726128900587728  0.0000
  O3     O3        0.511057245481769    0.008773608649326    0.783192617341357  0.0000
  O2     O2        0.585265834886743    0.207143990441881    0.095264195568127  0.0000
  O2     O2        0.890158395274411    0.828459571615952    0.124417942735939  0.0000
  O3     O3        0.381450640396053    0.198449199529959    0.871185632523439  0.0000
  O2     O2        0.092408938829392    0.840338634892420    0.911731626176704  0.0000
  O3     O3        0.373993076188718    0.835863013371420    0.868118183280675  0.0000
  O2     O2        0.100004910960458    0.188384423256352    0.892657951174959  0.0000
  O2     O2        0.615197427777566    0.865463702552642    0.110440747592061  0.0000
  O3     O3        0.881638177253905    0.164184489682116    0.145302607617111  0.0000
  O3     O3        0.476222179345460    0.981433055816795    0.046043853285016  0.0000
  O2     O2        0.972333724929815    0.038531169142794    0.970329498952324  0.0000
  O2     O2        0.143019988239792    0.498567968035048    0.321784357589681  0.0000
  O3     O3        0.368730637241652    0.487292816934776    0.299752386890712  0.0000
  O2     O2        0.861016209087180    0.501955248871867    0.701947308865863  0.0000
  O2     O2        0.636076646436031    0.528413164116101    0.682062327442762  0.0000
  O2     O2        0.253888094561980    0.266442987987523    0.319393573646117  0.0000
  O3     O3        0.251818003927297    0.734672305020714    0.341628285221634  0.0000
  O2     O2        0.745343234054680    0.286264641487153    0.671186396522885  0.0000
  O2     O2        0.752590556503329    0.745779397030078    0.678924521727097  0.0000
  O2     O2        0.144055465929803    0.254433196292595    0.137487419337859  0.0000
  O3     O3        0.344180414017697    0.771946508511010    0.118130587232801  0.0000
  O3     O3        0.836713352101323    0.247581565079851    0.877266144237963  0.0000
  O2     O2        0.650710365756285    0.766991079089132    0.869963318496763  0.0000
  O2     O2        0.850462827693274    0.747719945493269    0.880344336600024  0.0000
  O2     O2        0.650717617959025    0.290862479889556    0.871323980041468  0.0000
  O2     O2        0.149771733573486    0.756258798252465    0.147548702253614  0.0000
  O2     O2        0.348579547967455    0.250198118784417    0.116912968474690  0.0000
  O2     O2        0.626779085336420    0.529700046252958    0.054757310980232  0.0000
  O3     O3        0.863594083228438    0.506443498574710    0.067741357120852  0.0000
  O2     O2        0.352458846035115    0.515536410286113    0.948838891972540  0.0000
  O2     O2        0.123806577530686    0.513217686511814    0.966426540627246  0.0000
  O3     O3        0.733176093281260    0.286352938098404    0.088258205025005  0.0000
  O2     O2        0.748974056397958    0.728048928718142    0.070258575944770  0.0000
  O2     O2        0.239389078967062    0.290936234771443    0.935828376758885  0.0000
  O2     O2        0.235752604677990    0.738836010303848    0.935889296509006  0.0000
