data_c00360.vasp
_audit_creation_method             Generated by GULP
_audit_author_name                 Salvador R. G. Balestra
_symmetry_space_group_name_H-M     'P 1             '
_symmetry_Int_Tables_number        1

loop_
_symmetry_equiv_pos_site_id
_symmetry_equiv_pos_as_xyz
_cell_length_a                       16.8898
_cell_length_b                        7.5656
_cell_length_c                       10.5297
_cell_angle_alpha                   90.1910
_cell_angle_beta                    90.3690
_cell_angle_gamma                   89.1804

loop_
_atom_site_label
_atom_site_type_symbol
_atom_site_fract_x
_atom_site_fract_y
_atom_site_fract_z
_atom_site_charge
  Ge     Ge        0.052090000000021    0.000000000000000    0.372269999999958  0.0000
  Ge     Ge        0.444222430960642    0.953907492165559    0.864263590160777  0.0000
  Ge     Ge        0.056349550673129    0.990448171530569    0.895074720918025  0.0000
  Ge     Ge        0.325761060963590    0.233689567363142    0.975076722557567  0.0000
  Si     Si        0.457272953704053    0.966500849157538    0.357381671984104  0.0000
  Si     Si        0.954566129436264    0.976481283278584    0.635304059611979  0.0000
  Si     Si        0.552882869050998    0.970227250008423    0.615691170395112  0.0000
  Si     Si        0.554882126449129    0.983745649396172    0.104856689893550  0.0000
  Si     Si        0.942699200621641    0.974794097389448    0.127603065170779  0.0000
  Si     Si        0.154220060692570    0.312188762384524    0.279609241109224  0.0000
  Si     Si        0.359730651858676    0.654133324327674    0.268819238844526  0.0000
  Si     Si        0.851048407238701    0.287574529181368    0.718813773233206  0.0000
  Si     Si        0.654530679095147    0.662438286388224    0.712697409598402  0.0000
  Si     Si        0.837677669108971    0.694228163844850    0.719301688353444  0.0000
  Si     Si        0.668395217186263    0.255882700356577    0.715154268617641  0.0000
  Si     Si        0.178848271452752    0.716760953513396    0.274196684839159  0.0000
  Si     Si        0.335064848274798    0.248338272847825    0.275979863478698  0.0000
  Si     Si        0.668148946983679    0.261422780765530    0.010766110107659  0.0000
  Si     Si        0.833032228580921    0.695335665829249    0.014479308475263  0.0000
  Si     Si        0.178165817503114    0.712215537969730    0.980376963277477  0.0000
  Si     Si        0.360807860921021    0.632800578544117    0.975139780981359  0.0000
  Si     Si        0.142971589009272    0.319526596626599    0.983569401389426  0.0000
  Si     Si        0.649124817329255    0.663085570512906    0.006648453196447  0.0000
  Si     Si        0.851466865294806    0.293355396215910    0.014001564292274  0.0000
  O3     O3        0.090835673816648    0.209555144357867    0.361533564819020  0.0000
  O2     O2        0.421055314922932    0.769516490213601    0.351326405851509  0.0000
  O2     O2        0.911158385738931    0.169367590360162    0.636191935218467  0.0000
  O2     O2        0.596446335594886    0.779106242494458    0.625416261666602  0.0000
  O2     O2        0.887094326104294    0.825499115363485    0.632276858293998  0.0000
  O2     O2        0.618110831798534    0.123296086296150    0.629593869538262  0.0000
  O3     O3        0.130597000969849    0.853596381803978    0.358172384632110  0.0000
  O2     O2        0.386634230519022    0.112827317792551    0.362261354255979  0.0000
  O3     O3        0.012833472576233    0.964858418947036    0.519461229825419  0.0000
  O2     O2        0.511335755322877    0.985499389086080    0.480526853807695  0.0000
  O3     O3        0.974003104615688    0.967400554428606    0.269536858670984  0.0000
  O2     O2        0.513528342946202    0.002401443415438    0.239052979757416  0.0000
  O3     O3        0.005362794144147    0.942959315116061    0.761012654556751  0.0000
  O3     O3        0.486591331242334    0.991849042788565    0.721028399722960  0.0000
  O2     O2        0.626611575993879    0.123015965882772    0.101464021364062  0.0000
  O2     O2        0.871906947449695    0.835272265212652    0.108526596262224  0.0000
  O1     O1        0.358705868447319    0.076643739633586    0.873414583692455  0.0000
  O3     O3        0.142836406559677    0.862657179921092    0.892375807477230  0.0000
  O3     O3        0.420239184513975    0.735271181037523    0.885751200189711  0.0000
  O3     O3        0.077399389390524    0.212966987964787    0.906629224401194  0.0000
  O2     O2        0.589346363001606    0.783760743139566    0.087607036519605  0.0000
  O2     O2        0.910301174124319    0.173866273805689    0.097817865212314  0.0000
  O3     O3        0.497485983944972    0.037275669803958    0.991094097820491  0.0000
  O3     O3        0.010509525459637    0.919802156403003    0.030844891098535  0.0000
  O2     O2        0.143174727821855    0.522302364781067    0.297145334733899  0.0000
  O2     O2        0.371684178045218    0.444560641474458    0.291104391697147  0.0000
  O2     O2        0.865724173498535    0.493231076061224    0.690504338467385  0.0000
  O2     O2        0.640554137921375    0.456249793903807    0.684724453306106  0.0000
  O2     O2        0.243492494228007    0.253720844574473    0.320824933096731  0.0000
  O2     O2        0.271610537117465    0.712540102395437    0.311172316314341  0.0000
  O2     O2        0.761305029909336    0.235248507910539    0.683951593156773  0.0000
  O2     O2        0.744903229715649    0.713794170334435    0.685550495732771  0.0000
  O2     O2        0.139000405777386    0.261632216942446    0.132049616182855  0.0000
  O2     O2        0.375072596215391    0.697050185974591    0.121061562124553  0.0000
  O2     O2        0.868902338142874    0.247181198206188    0.866861406512943  0.0000
  O2     O2        0.632197560742263    0.707114643097869    0.858608709836281  0.0000
  O2     O2        0.850482160784085    0.742285578951573    0.867685736923516  0.0000
  O2     O2        0.654751307456276    0.210837066981683    0.862951511454704  0.0000
  O2     O2        0.171651674862443    0.774485188892925    0.127260508173107  0.0000
  O3     O3        0.336864423407752    0.177552488759258    0.133351482307963  0.0000
  O2     O2        0.632757888796675    0.458120573621197    0.035515303133670  0.0000
  O2     O2        0.867691021368130    0.499008120044270    0.043220110415902  0.0000
  O3     O3        0.377502289799127    0.428197118363843    0.956905837446018  0.0000
  O2     O2        0.129483599273559    0.529586925259407    0.965975124033583  0.0000
  O2     O2        0.760742405254519    0.252876764237814    0.044843781347283  0.0000
  O2     O2        0.739619939389195    0.704792097125901    0.039997151625573  0.0000
  O3     O3        0.228375426430874    0.264654054974478    0.932717163233826  0.0000
  O2     O2        0.268898775259048    0.675699151308407    0.941845522283739  0.0000
