data_c00331.vasp
_audit_creation_method             Generated by GULP
_audit_author_name                 Salvador R. G. Balestra
_symmetry_space_group_name_H-M     'P 1             '
_symmetry_Int_Tables_number        1

loop_
_symmetry_equiv_pos_site_id
_symmetry_equiv_pos_as_xyz
_cell_length_a                       17.1722
_cell_length_b                        7.6122
_cell_length_c                       10.2713
_cell_angle_alpha                   90.6547
_cell_angle_beta                    90.2900
_cell_angle_gamma                   90.7483

loop_
_atom_site_label
_atom_site_type_symbol
_atom_site_fract_x
_atom_site_fract_y
_atom_site_fract_z
_atom_site_charge
  Ge     Ge        0.052090000000021    0.000000000000000    0.372269999999958  0.0000
  Ge     Ge        0.939279815030122    0.010584291546174    0.112341591980858  0.0000
  Ge     Ge        0.647250644713828    0.660605328871207    0.704241987193809  0.0000
  Ge     Ge        0.817532359094231    0.723803072322672    0.026423643165091  0.0000
  Si     Si        0.451064876738145    0.997226850797533    0.365476627719457  0.0000
  Si     Si        0.946667235389757    0.995910602682445    0.627807812971320  0.0000
  Si     Si        0.543563201322399    0.970475042665197    0.628493737419073  0.0000
  Si     Si        0.550211376964130    0.984900732685372    0.112258620968558  0.0000
  Si     Si        0.435756640528344    0.995485406165704    0.877052862988245  0.0000
  Si     Si        0.049343299138603    0.986193402989124    0.873046201603793  0.0000
  Si     Si        0.157951016869266    0.306310945298305    0.290183013603794  0.0000
  Si     Si        0.347353357421713    0.688471486828572    0.275117077397788  0.0000
  Si     Si        0.843125953173566    0.298454053013351    0.729100860094156  0.0000
  Si     Si        0.826893289511033    0.706131863147286    0.716654077043921  0.0000
  Si     Si        0.664681263142862    0.253507156360075    0.716556763789066  0.0000
  Si     Si        0.167436981752487    0.712010979631442    0.287349731102219  0.0000
  Si     Si        0.337376400539427    0.285301524781537    0.274051928931823  0.0000
  Si     Si        0.662965495963295    0.272022608273479    0.021618757029921  0.0000
  Si     Si        0.327356921605162    0.282342456977330    0.970290900922939  0.0000
  Si     Si        0.159113145953728    0.703728450491849    0.985380505166057  0.0000
  Si     Si        0.339605769647684    0.682840573777833    0.972651494402907  0.0000
  Si     Si        0.147479393049276    0.299303701641173    0.988045579937824  0.0000
  Si     Si        0.638721558876791    0.664572692047362    0.018434901721245  0.0000
  Si     Si        0.843029596476012    0.324035172347464    0.029785862611221  0.0000
  O3     O3        0.103245225060305    0.197192198888243    0.383794115940661  0.0000
  O2     O2        0.405644979228882    0.810583152716918    0.359064109857556  0.0000
  O2     O2        0.903719390694038    0.181706952753603    0.648525699940781  0.0000
  O3     O3        0.576781883280782    0.775854269875062    0.622396051469878  0.0000
  O2     O2        0.887315842250842    0.832070959605098    0.642167956204760  0.0000
  O2     O2        0.619634222408368    0.097051028862549    0.641185906720713  0.0000
  O3     O3        0.119948802154455    0.833968696482724    0.382966804364811  0.0000
  O2     O2        0.390130883882777    0.155157485413868    0.355861701495959  0.0000
  O3     O3        0.978486532758722    0.989636412247347    0.482928697311028  0.0000
  O2     O2        0.495450363036886    0.016469063146554    0.500867329191145  0.0000
  O1     O1        0.009037304534625    0.977053155849200    0.223471869502891  0.0000
  O2     O2        0.514825395598392    0.010116425025152    0.253650633794792  0.0000
  O2     O2        0.021877829302342    0.982725691922215    0.722719562644101  0.0000
  O2     O2        0.485664630978162    0.003250650784623    0.747881583688445  0.0000
  O2     O2        0.623811998565774    0.118357658496870    0.105106957538563  0.0000
  O1     O1        0.860461386053045    0.872740078762340    0.126632918550755  0.0000
  O2     O2        0.370871389433450    0.147240532521232    0.875607227899376  0.0000
  O2     O2        0.111874259633808    0.832514024922566    0.893309418420123  0.0000
  O2     O2        0.393525833491565    0.804746247603470    0.883249671052629  0.0000
  O2     O2        0.087224961756499    0.177541882178862    0.907672747305693  0.0000
  O2     O2        0.575221269606802    0.782947972618835    0.092757867162572  0.0000
  O3     O3        0.901828637438129    0.220274071522773    0.119616383130216  0.0000
  O2     O2        0.489107614180126    0.037093169019614    0.001821652811179  0.0000
  O3     O3        0.975207046872777    0.951844061862295    0.960322199907762  0.0000
  O2     O2        0.142969244271961    0.511211187516994    0.313816007970515  0.0000
  O2     O2        0.364636536865566    0.485336250486626    0.304403132525831  0.0000
  O2     O2        0.859038041881182    0.505963566318905    0.709629014177777  0.0000
  O3     O3        0.629411283350575    0.438889989535688    0.679251258818091  0.0000
  O2     O2        0.247991030813324    0.259944141784310    0.316662175615395  0.0000
  O2     O2        0.259481436449621    0.736258469143599    0.313118514513367  0.0000
  O2     O2        0.756059193572153    0.249947142102547    0.678993099115975  0.0000
  O3     O3        0.741185473329290    0.707487158737390    0.653466781037505  0.0000
  O2     O2        0.136364309383337    0.254722817213425    0.140141454079087  0.0000
  O2     O2        0.360617057253049    0.726506635086338    0.122691630150648  0.0000
  O2     O2        0.853309134976274    0.252519533698764    0.881006113276722  0.0000
  O3     O3        0.637320434413190    0.711549152523955    0.866996471263205  0.0000
  O3     O3        0.818681531781182    0.775170676465289    0.863294692101744  0.0000
  O2     O2        0.658338678894780    0.218723942897435    0.870334459508754  0.0000
  O2     O2        0.148512094171364    0.758904419666878    0.136536443121718  0.0000
  O2     O2        0.345000321545508    0.240927976466267    0.120978865720486  0.0000
  O2     O2        0.618935514298864    0.457510112889958    0.040759216040948  0.0000
  O3     O3        0.864581982809647    0.525837379717270    0.043374132217001  0.0000
  O2     O2        0.356312649243616    0.479787302767918    0.938322969613796  0.0000
  O2     O2        0.128621992231572    0.503554179155161    0.962965855917871  0.0000
  O2     O2        0.752340755792836    0.292605138848408    0.067978671589952  0.0000
  O3     O3        0.722680047505273    0.705557737670830    0.077669532102014  0.0000
  O2     O2        0.235315748565154    0.260871793183695    0.943513078294315  0.0000
  O2     O2        0.249254279090314    0.721392787176231    0.946187431792355  0.0000
