data_c00399.vasp
_audit_creation_method             Generated by GULP
_audit_author_name                 Salvador R. G. Balestra
_symmetry_space_group_name_H-M     'P 1             '
_symmetry_Int_Tables_number        1

loop_
_symmetry_equiv_pos_site_id
_symmetry_equiv_pos_as_xyz
_cell_length_a                       17.2059
_cell_length_b                        7.6427
_cell_length_c                       10.2583
_cell_angle_alpha                   89.3752
_cell_angle_beta                    91.2394
_cell_angle_gamma                   90.1534

loop_
_atom_site_label
_atom_site_type_symbol
_atom_site_fract_x
_atom_site_fract_y
_atom_site_fract_z
_atom_site_charge
  Ge     Ge        0.052090000000021    0.000000000000000    0.372269999999958  0.0000
  Ge     Ge        0.440655776471556    0.020719454676180    0.854657308410487  0.0000
  Ge     Ge        0.833599548145302    0.301365988461773    0.700068008219399  0.0000
  Ge     Ge        0.667365672911159    0.723086647715521    0.018205712458589  0.0000
  Si     Si        0.450813662999310    0.021729056444022    0.345135228754630  0.0000
  Si     Si        0.950343579200406    0.013065405247691    0.630749090580818  0.0000
  Si     Si        0.547176145646199    0.024394764365850    0.606209799471848  0.0000
  Si     Si        0.556115704796239    0.008630879533752    0.098110620651748  0.0000
  Si     Si        0.941620307868595    0.002545089649808    0.122096599740478  0.0000
  Si     Si        0.052177077186716    0.015686563017821    0.888765955586514  0.0000
  Si     Si        0.169073249311522    0.294728591795879    0.270327666742982  0.0000
  Si     Si        0.337143582531303    0.730305817453895    0.266077074787650  0.0000
  Si     Si        0.662685394517876    0.735057034335265    0.708108624956856  0.0000
  Si     Si        0.841225282748304    0.709914821990123    0.707599037475294  0.0000
  Si     Si        0.651369471492019    0.328540321240149    0.702026504061982  0.0000
  Si     Si        0.157408476156255    0.698151948141327    0.273031914647911  0.0000
  Si     Si        0.347356052370834    0.327195614197841    0.266838040996956  0.0000
  Si     Si        0.653094579234474    0.321802683758648    0.006580037374592  0.0000
  Si     Si        0.848208356668613    0.688876795048889    0.014860087421505  0.0000
  Si     Si        0.344520585213110    0.335198958584746    0.962762465459941  0.0000
  Si     Si        0.148300437599223    0.700266211337679    0.971216419476302  0.0000
  Si     Si        0.328302660633873    0.734283096492801    0.963281707524502  0.0000
  Si     Si        0.165217928648182    0.302221350746585    0.966501186725141  0.0000
  Si     Si        0.833383524210181    0.290740767196015    0.010108365595755  0.0000
  O3     O3        0.117816893952841    0.168537396788532    0.356019928693443  0.0000
  O2     O2        0.389321977510876    0.861301528507199    0.352904484454082  0.0000
  O3     O3        0.891703560775276    0.173517964219729    0.606796581315382  0.0000
  O2     O2        0.609386941189497    0.868491362498022    0.624678929461485  0.0000
  O2     O2        0.897994848928416    0.837573890140360    0.629566099394081  0.0000
  O2     O2        0.588271110908124    0.213703146570509    0.622977914887030  0.0000
  O3     O3        0.101516423169986    0.805127893776182    0.362333026380191  0.0000
  O2     O2        0.405611791637269    0.206322643184325    0.352478988542415  0.0000
  O3     O3        0.016729624744614    0.007240620736968    0.527113553396304  0.0000
  O2     O2        0.513967798115785    0.009528035714296    0.459963206741908  0.0000
  O3     O3        0.972633357863590    0.012654199934922    0.268430158097735  0.0000
  O2     O2        0.494500026045593    0.010709619920890    0.210263106406638  0.0000
  O2     O2        0.990998839173253    0.038079796307271    0.772170198566203  0.0000
  O3     O3        0.474988000264537    0.007097338977911    0.699930102216776  0.0000
  O2     O2        0.598560437050164    0.196547112290964    0.090350647458817  0.0000
  O2     O2        0.909959942985936    0.806927871223254    0.093845635480716  0.0000
  O3     O3        0.403376964068354    0.227463243072406    0.878807586805896  0.0000
  O2     O2        0.090767076952603    0.822639476898504    0.884755542437167  0.0000
  O3     O3        0.366225312903497    0.870619247005803    0.867728090150766  0.0000
  O2     O2        0.118129105216820    0.165556628766589    0.877160222133714  0.0000
  O3     O3        0.620306513292181    0.860384982829648    0.120858315453733  0.0000
  O2     O2        0.874294447607843    0.147554364424787    0.103672164077797  0.0000
  O3     O3        0.513786986645222    0.963594697196858    0.961962302697197  0.0000
  O2     O2        0.011060988445805    0.047414587825176    0.025354535242832  0.0000
  O2     O2        0.143091890636919    0.492998833423821    0.296912124247606  0.0000
  O2     O2        0.364939297775300    0.531186627259241    0.293858469143602  0.0000
  O3     O3        0.863752271755662    0.514009963723290    0.676236943997960  0.0000
  O2     O2        0.633368029813980    0.535729833455538    0.686058386189062  0.0000
  O2     O2        0.260199151857378    0.277297040587821    0.307831869902592  0.0000
  O2     O2        0.247210855912170    0.748741302574930    0.303867163278702  0.0000
  O3     O3        0.736686219040629    0.287291739925661    0.653300711110918  0.0000
  O2     O2        0.752065477010387    0.749892754720177    0.662988111631366  0.0000
  O2     O2        0.157365841373066    0.248633073003873    0.117975371715439  0.0000
  O2     O2        0.346586108534087    0.782108895422178    0.114256638640093  0.0000
  O3     O3        0.841543814208610    0.236436167012985    0.861405946028690  0.0000
  O3     O3        0.658542754548566    0.789238544034667    0.857499594755981  0.0000
  O2     O2        0.848839009317209    0.742117559201484    0.862558876423460  0.0000
  O2     O2        0.643838880258854    0.274868109082375    0.853891123383840  0.0000
  O2     O2        0.135977915951925    0.746277939161629    0.122461813093838  0.0000
  O2     O2        0.358896741432009    0.285596379374512    0.114843017243210  0.0000
  O3     O3        0.627397849115090    0.516969693486620    0.032587183622843  0.0000
  O2     O2        0.870864377080029    0.483840804551491    0.031851185269852  0.0000
  O2     O2        0.360917705735167    0.540139509069144    0.937984740828191  0.0000
  O2     O2        0.130080677159189    0.496730230846162    0.942767831252015  0.0000
  O2     O2        0.743203444509567    0.297007559657187    0.048522336210262  0.0000
  O3     O3        0.763367482605392    0.720843629594841    0.068379289647013  0.0000
  O2     O2        0.254707761646487    0.293683524021913    0.924913726605898  0.0000
  O2     O2        0.236352176881766    0.740410529829985    0.934282970969528  0.0000
