data_c00345.vasp
_audit_creation_method             Generated by GULP
_audit_author_name                 Salvador R. G. Balestra
_symmetry_space_group_name_H-M     'P 1             '
_symmetry_Int_Tables_number        1

loop_
_symmetry_equiv_pos_site_id
_symmetry_equiv_pos_as_xyz
_cell_length_a                       17.1700
_cell_length_b                        7.6377
_cell_length_c                       10.2296
_cell_angle_alpha                   90.0230
_cell_angle_beta                    90.2775
_cell_angle_gamma                   90.1629

loop_
_atom_site_label
_atom_site_type_symbol
_atom_site_fract_x
_atom_site_fract_y
_atom_site_fract_z
_atom_site_charge
  Ge     Ge        0.052090000000021    0.000000000000000    0.372269999999958  0.0000
  Ge     Ge        0.935776056580749    0.998931926657069    0.115190527451186  0.0000
  Ge     Ge        0.815959015394426    0.714000028580150    0.031398873656002  0.0000
  Ge     Ge        0.324369376018989    0.274767210450837    0.963238007458429  0.0000
  Si     Si        0.449312076044716    0.986070089567356    0.363622491865435  0.0000
  Si     Si        0.945113363799438    0.996407926119684    0.627290856894542  0.0000
  Si     Si        0.548534021382380    0.977864098974621    0.624227024107266  0.0000
  Si     Si        0.542968722557238    0.988332998961309    0.103800425798499  0.0000
  Si     Si        0.433037510808401    0.991002283087172    0.865595797164081  0.0000
  Si     Si        0.045667122366527    0.988524148611797    0.876508760359747  0.0000
  Si     Si        0.157260522597729    0.307176390823323    0.292829312881359  0.0000
  Si     Si        0.346713620018096    0.680925500986679    0.270723081844137  0.0000
  Si     Si        0.840524704538643    0.298204547314971    0.726354248263884  0.0000
  Si     Si        0.652820235547054    0.671639051247294    0.703543635208519  0.0000
  Si     Si        0.829467279498402    0.705747653636042    0.722225131278058  0.0000
  Si     Si        0.661638145587447    0.272584973816488    0.707966429312427  0.0000
  Si     Si        0.166789690762622    0.709105609711299    0.288071342784512  0.0000
  Si     Si        0.335914791274167    0.276751186998940    0.274103015406218  0.0000
  Si     Si        0.655585472121440    0.276457735064605    0.013211142129276  0.0000
  Si     Si        0.157078961054373    0.703090158057399    0.984906154191138  0.0000
  Si     Si        0.338974919318859    0.679452192399097    0.967984437474891  0.0000
  Si     Si        0.142131004541886    0.301725690202907    0.987284517786418  0.0000
  Si     Si        0.636661537083858    0.669560284592235    0.011837217781950  0.0000
  Si     Si        0.836460089829611    0.311629457938411    0.028272239598184  0.0000
  O3     O3        0.102043082057720    0.196280480058612    0.385005672858632  0.0000
  O2     O2        0.404263154512707    0.800829695266846    0.356009441484327  0.0000
  O2     O2        0.900034867783174    0.180612486652678    0.644373794811142  0.0000
  O2     O2        0.594302290530189    0.793929472768019    0.622016751125221  0.0000
  O2     O2        0.886943570224919    0.831669232032920    0.642036630259227  0.0000
  O2     O2        0.611184546908811    0.135564043950817    0.624402309924237  0.0000
  O3     O3        0.120650965043838    0.834267746561914    0.383387681703040  0.0000
  O2     O2        0.389098794244562    0.147272672003237    0.359647948491500  0.0000
  O3     O3        0.978021910497316    0.988049686459439    0.482774044279187  0.0000
  O2     O2        0.494867600952186    0.994539409637382    0.498657307138061  0.0000
  O1     O1        0.009117453450600    0.980282590878800    0.222828328337785  0.0000
  O2     O2        0.512020896581759    0.001540460871268    0.249447631398900  0.0000
  O2     O2        0.019418473713279    0.987731000133754    0.724880434044660  0.0000
  O2     O2        0.493388835606569    0.987860866336926    0.749160144605995  0.0000
  O2     O2        0.614321783520637    0.124795039697228    0.095114181200404  0.0000
  O1     O1        0.861465005280591    0.851937581154130    0.135558010209652  0.0000
  O3     O3        0.368457625420011    0.139261982800884    0.851995981563830  0.0000
  O2     O2        0.112236929739807    0.841366333854249    0.894692598736310  0.0000
  O2     O2        0.389472737385311    0.804067319330384    0.875043538028570  0.0000
  O2     O2        0.077193018641697    0.182040079283197    0.916763842710449  0.0000
  O2     O2        0.570034117166110    0.790031460458529    0.074105356327603  0.0000
  O3     O3        0.892019136905051    0.202350301709598    0.121092155620742  0.0000
  O2     O2        0.476880374966920    0.043147069873285    0.000566242217667  0.0000
  O3     O3        0.972010054954786    0.943252176467938    0.962469441820109  0.0000
  O2     O2        0.139228006936281    0.510920956142554    0.314976162724314  0.0000
  O2     O2        0.366096729711450    0.476480778909899    0.291739098544576  0.0000
  O2     O2        0.859068011121422    0.504659958984746    0.709565966549114  0.0000
  O2     O2        0.633288340883497    0.468679360471520    0.672970050254457  0.0000
  O2     O2        0.247294511816892    0.264523217512041    0.324868073037135  0.0000
  O2     O2        0.259038566277685    0.723535086143413    0.314366300755517  0.0000
  O2     O2        0.753151176081525    0.255334245058215    0.675593665941658  0.0000
  O2     O2        0.741587968535425    0.715091981320432    0.663054565982276  0.0000
  O2     O2        0.140227290668679    0.256446563141252    0.141487242722780  0.0000
  O2     O2        0.357789411390865    0.729133289987898    0.118545838277700  0.0000
  O2     O2        0.849728586098371    0.247257141878502    0.878479232822081  0.0000
  O2     O2        0.642465352477180    0.707793833785599    0.857248238260062  0.0000
  O3     O3        0.826168749658400    0.772562113485578    0.869229952829045  0.0000
  O2     O2        0.649376186012106    0.229732483277078    0.860312194089751  0.0000
  O2     O2        0.149107185364981    0.759365207352359    0.136543035973692  0.0000
  O3     O3        0.338843890937465    0.217966375633874    0.124474132219500  0.0000
  O2     O2        0.615252292198402    0.465227398183184    0.037442061980182  0.0000
  O3     O3        0.858168295644592    0.510961944460814    0.048020287818591  0.0000
  O3     O3        0.360696821731417    0.482387448849357    0.937552654582383  0.0000
  O2     O2        0.122179234533106    0.507561784455099    0.965130029870860  0.0000
  O2     O2        0.744870324063630    0.284747530048943    0.059911532727636  0.0000
  O3     O3        0.719109226441971    0.712076506642011    0.075244024936884  0.0000
  O3     O3        0.226062984353677    0.263004772685651    0.929288779943388  0.0000
  O2     O2        0.246948271090104    0.705860629093672    0.942173210688332  0.0000
