data_c00320.vasp
_audit_creation_method             Generated by GULP
_audit_author_name                 Salvador R. G. Balestra
_symmetry_space_group_name_H-M     'P 1             '
_symmetry_Int_Tables_number        1

loop_
_symmetry_equiv_pos_site_id
_symmetry_equiv_pos_as_xyz
_cell_length_a                       17.3163
_cell_length_b                        7.6577
_cell_length_c                       10.1433
_cell_angle_alpha                   88.9549
_cell_angle_beta                    90.0653
_cell_angle_gamma                   90.3081

loop_
_atom_site_label
_atom_site_type_symbol
_atom_site_fract_x
_atom_site_fract_y
_atom_site_fract_z
_atom_site_charge
  Ge     Ge        0.052090000000021    0.000000000000000    0.372269999999958  0.0000
  Ge     Ge        0.938440338296843    0.006081354168890    0.112182773197350  0.0000
  Ge     Ge        0.844846585887850    0.333851470190560    0.721949423856058  0.0000
  Ge     Ge        0.658902814432673    0.313317669899092    0.709432557172808  0.0000
  Si     Si        0.447813483096226    0.996171395746603    0.379814863985545  0.0000
  Si     Si        0.949668994941369    0.030712030268667    0.628997854261975  0.0000
  Si     Si        0.544184980101971    0.018771978463566    0.639476026305225  0.0000
  Si     Si        0.551024212710398    0.995713457791448    0.131973209309654  0.0000
  Si     Si        0.437411290747633    0.009596087174675    0.892312696238128  0.0000
  Si     Si        0.052774207682202    0.007520611553801    0.873316769446278  0.0000
  Si     Si        0.160172771111483    0.305624164464291    0.295953294782653  0.0000
  Si     Si        0.343870003109238    0.694602318200996    0.281802525311515  0.0000
  Si     Si        0.654336780358208    0.720585622999051    0.725208415066316  0.0000
  Si     Si        0.833050625794695    0.744381947691880    0.739833427758780  0.0000
  Si     Si        0.165380410330680    0.709287345160726    0.293144154458551  0.0000
  Si     Si        0.338247794363711    0.294369168185054    0.283405874418131  0.0000
  Si     Si        0.657944436034075    0.291022436211789    0.024301953361198  0.0000
  Si     Si        0.824130530032823    0.715401604350634    0.046101494861360  0.0000
  Si     Si        0.330476729882562    0.301754165733645    0.974810428635063  0.0000
  Si     Si        0.158790812754088    0.712975338320915    0.986799413357915  0.0000
  Si     Si        0.337710793488994    0.698889082286886    0.974032495232052  0.0000
  Si     Si        0.152120760119451    0.310532785189852    0.989251847706793  0.0000
  Si     Si        0.647221534480433    0.689222083392031    0.032876902905170  0.0000
  Si     Si        0.836411553448638    0.317487034883948    0.035457493805361  0.0000
  O3     O3        0.105825011914406    0.190245757457518    0.387938302049682  0.0000
  O2     O2        0.400290806687066    0.817051991030588    0.363735916847116  0.0000
  O3     O3        0.914060139376684    0.222750897064959    0.635488881643955  0.0000
  O2     O2        0.603319931827519    0.857283957399122    0.643008392484441  0.0000
  O2     O2        0.881271746104424    0.895044942701514    0.665956828428019  0.0000
  O3     O3        0.595275002809589    0.190779579457050    0.618617108739929  0.0000
  O3     O3        0.115842339841285    0.826694477368807    0.387243441642816  0.0000
  O2     O2        0.391998656264768    0.162410158791235    0.364371488050575  0.0000
  O3     O3        0.977576694463638    0.991957414213350    0.482754284008850  0.0000
  O2     O2        0.482053270201554    0.994840486256223    0.525300069695307  0.0000
  O1     O1        0.011859177647008    0.989106099572776    0.219700749317636  0.0000
  O2     O2        0.518654337410872    0.007715544991173    0.278742517229728  0.0000
  O2     O2        0.026199883811258    0.011462745093236    0.720606959058731  0.0000
  O2     O2        0.496951724980849    0.028017070971558    0.774772754407085  0.0000
  O2     O2        0.612663547692958    0.151175573792603    0.114359734362323  0.0000
  O3     O3        0.871612734535737    0.839336403692349    0.139142944996519  0.0000
  O2     O2        0.377545336626540    0.170425550945454    0.884491355978998  0.0000
  O2     O2        0.109375500246822    0.843406759373193    0.896174457892361  0.0000
  O2     O2        0.390218346098614    0.827096242031922    0.884368942270203  0.0000
  O2     O2        0.095054951983093    0.190629337165796    0.905761994199451  0.0000
  O2     O2        0.589819204308715    0.806009743111389    0.117411155025608  0.0000
  O3     O3        0.890329000621145    0.201924140060613    0.128411730889459  0.0000
  O2     O2        0.481763116005418    0.020684599049781    0.029871529422026  0.0000
  O3     O3        0.975914391779674    0.985186203171763    0.956016200034049  0.0000
  O2     O2        0.143111553667895    0.507941982640694    0.320507508274510  0.0000
  O2     O2        0.362931217503756    0.492723960058977    0.315565760670742  0.0000
  O3     O3        0.866058216451466    0.555251524224660    0.709827734484862  0.0000
  O3     O3        0.630275673776589    0.527303135972292    0.688998479853925  0.0000
  O2     O2        0.249661484585479    0.262531453423121    0.325629540164469  0.0000
  O2     O2        0.256147579346871    0.737681728318673    0.320462353916942  0.0000
  O1     O1        0.753452928230704    0.295701710777156    0.663448282672018  0.0000
  O2     O2        0.744361191659403    0.752289229478148    0.689487988733172  0.0000
  O2     O2        0.141213369436422    0.260991954836824    0.143237789395825  0.0000
  O2     O2        0.356395349317658    0.733237217533342    0.126807948458641  0.0000
  O3     O3        0.850331671332948    0.266246086316163    0.884831779466130  0.0000
  O2     O2        0.641323091307018    0.750111867874478    0.880852815880053  0.0000
  O2     O2        0.834069736804726    0.783302033823815    0.895337010427342  0.0000
  O3     O3        0.651448014506918    0.244329662333602    0.872427101811083  0.0000
  O2     O2        0.147351860267158    0.759882367399198    0.139897875182571  0.0000
  O2     O2        0.346890303878284    0.260419892280058    0.128203386980788  0.0000
  O2     O2        0.623717131113015    0.485373753545433    0.047267916919380  0.0000
  O2     O2        0.857443791185405    0.519805850792254    0.057759906310906  0.0000
  O2     O2        0.356840881535175    0.499427244103005    0.938396962401840  0.0000
  O2     O2        0.131032820169480    0.513789137758533    0.963047053239095  0.0000
  O2     O2        0.746677781973774    0.284828194305737    0.070044482322602  0.0000
  O2     O2        0.734042284070336    0.716770079689580    0.085505556432237  0.0000
  O2     O2        0.239860157276299    0.276743574215885    0.945108889212988  0.0000
  O2     O2        0.247902635042897    0.736246142180675    0.945916507563082  0.0000
