data_c00308.vasp
_audit_creation_method             Generated by GULP
_audit_author_name                 Salvador R. G. Balestra
_symmetry_space_group_name_H-M     'P 1             '
_symmetry_Int_Tables_number        1

loop_
_symmetry_equiv_pos_site_id
_symmetry_equiv_pos_as_xyz
_cell_length_a                       17.1935
_cell_length_b                        7.6159
_cell_length_c                       10.2382
_cell_angle_alpha                   88.4970
_cell_angle_beta                    89.7439
_cell_angle_gamma                   89.6257

loop_
_atom_site_label
_atom_site_type_symbol
_atom_site_fract_x
_atom_site_fract_y
_atom_site_fract_z
_atom_site_charge
  Ge     Ge        0.052090000000021    0.000000000000000    0.372269999999958  0.0000
  Ge     Ge        0.943061315306179    0.999103043863701    0.110050194845934  0.0000
  Ge     Ge        0.338182299251054    0.728261710697988    0.288853680288200  0.0000
  Ge     Ge        0.655040635471824    0.346246126030006    0.716264832993969  0.0000
  Si     Si        0.455186794723800    0.008375178407136    0.374123109066955  0.0000
  Si     Si        0.953781352656307    0.018508584822248    0.635632782830678  0.0000
  Si     Si        0.552365062334091    0.042109010587754    0.628894729465227  0.0000
  Si     Si        0.552667046030225    0.010978706098466    0.114477791504760  0.0000
  Si     Si        0.442171094786177    0.021019066263012    0.873295425584725  0.0000
  Si     Si        0.059516729887748    0.016166567755263    0.873594043676516  0.0000
  Si     Si        0.172786663487503    0.283212998479456    0.290886534002135  0.0000
  Si     Si        0.836235936616720    0.308652813904081    0.729201558362566  0.0000
  Si     Si        0.670802839385584    0.754294039913425    0.730128829296922  0.0000
  Si     Si        0.848800328011380    0.714201249384577    0.740733655186567  0.0000
  Si     Si        0.155398480194906    0.689129205640663    0.294346379474064  0.0000
  Si     Si        0.353074255821108    0.317593109162014    0.284903175715508  0.0000
  Si     Si        0.645269308866371    0.331225946518634    0.028600025475553  0.0000
  Si     Si        0.845168425681657    0.681913179806223    0.044876793403180  0.0000
  Si     Si        0.348475057592561    0.330645396294966    0.980780221685640  0.0000
  Si     Si        0.154127823640366    0.700872307296797    0.989313794553553  0.0000
  Si     Si        0.334294195598266    0.733412439093018    0.978073887737418  0.0000
  Si     Si        0.168278084542354    0.298648164033678    0.987459459616328  0.0000
  Si     Si        0.666913597946907    0.725415395754141    0.037305531373826  0.0000
  Si     Si        0.823584832035135    0.286427464747622    0.034752788414256  0.0000
  O3     O3        0.126598533444995    0.151539365742249    0.383761005339880  0.0000
  O3     O3        0.391472570319608    0.857835861962915    0.388704908323220  0.0000
  O2     O2        0.896580022610038    0.183793524039928    0.656109123017676  0.0000
  O2     O2        0.624618816828824    0.911016967950162    0.657826382873233  0.0000
  O2     O2        0.909970233280318    0.834815769679671    0.662981903229658  0.0000
  O3     O3        0.587964631933098    0.234686990571521    0.626423925143277  0.0000
  O3     O3        0.093191105388454    0.791890479935994    0.379152720250030  0.0000
  O2     O2        0.410664928728146    0.195322083295289    0.370179105629491  0.0000
  O3     O3        0.980782582684426    0.023320472692502    0.487390029196720  0.0000
  O2     O2        0.517113752991132    0.000337228393632    0.489213192559244  0.0000
  O1     O1        0.008570206527998    0.041567617821885    0.225639673455327  0.0000
  O2     O2        0.500011269269761    0.975715455545544    0.239528765942264  0.0000
  O2     O2        0.031991741524210    0.027544819981268    0.723035719496827  0.0000
  O2     O2        0.482902912876861    0.017890094295606    0.733265547117912  0.0000
  O2     O2        0.586506358534630    0.208471266741882    0.112816225711654  0.0000
  O3     O3        0.905150061666370    0.788830810704800    0.128754703284049  0.0000
  O2     O2        0.403456565775276    0.213162459653152    0.890627342185064  0.0000
  O2     O2        0.095928339286298    0.823141254932721    0.905235792403629  0.0000
  O2     O2        0.376753806811516    0.869778894268230    0.879233825519309  0.0000
  O2     O2        0.123001758941738    0.167139517007427    0.895960544794343  0.0000
  O2     O2        0.622470363673852    0.868882761676031    0.121355766975159  0.0000
  O3     O3        0.864175336976288    0.140265387476333    0.121780004345803  0.0000
  O2     O2        0.504499109314513    0.976145222272308    0.984535771804426  0.0000
  O3     O3        0.984035750000170    0.045839040665574    0.959535678037003  0.0000
  O2     O2        0.144896026638495    0.481413473813333    0.316868999966899  0.0000
  O3     O3        0.369859731347300    0.515645061411624    0.316243293686749  0.0000
  O2     O2        0.865335828270333    0.510000411907367    0.712094611608488  0.0000
  O3     O3        0.638654142171943    0.567998246223895    0.689405004571772  0.0000
  O2     O2        0.264379719950759    0.266825519457230    0.320206978918148  0.0000
  O3     O3        0.241620624991308    0.746248165901527    0.331237271445096  0.0000
  O3     O3        0.749772010344304    0.296179928416332    0.672928640546082  0.0000
  O2     O2        0.762159435712714    0.766314978451812    0.692566602516412  0.0000
  O2     O2        0.157170880933887    0.239312304341298    0.138775184471488  0.0000
  O3     O3        0.349034333771823    0.786385708113545    0.125725082786555  0.0000
  O2     O2        0.831534741430346    0.249014232875638    0.880937711312485  0.0000
  O2     O2        0.663014482443623    0.778049114044035    0.885000423400384  0.0000
  O2     O2        0.857773259716085    0.747986654869255    0.894439916856489  0.0000
  O3     O3        0.635385192238506    0.290607657840375    0.877466169893149  0.0000
  O2     O2        0.140431658713601    0.742137508930292    0.141317141200643  0.0000
  O2     O2        0.366939544394073    0.281835808303373    0.131329628534329  0.0000
  O2     O2        0.626634813958503    0.534888015739015    0.058048529390359  0.0000
  O2     O2        0.862399602490407    0.475203243928709    0.062186378867078  0.0000
  O2     O2        0.365989599804370    0.536146638937196    0.953246023763000  0.0000
  O2     O2        0.135649038160890    0.496798176066280    0.963782216683759  0.0000
  O2     O2        0.733049824446654    0.290022539092368    0.072870704051076  0.0000
  O2     O2        0.755843046705888    0.720146727155562    0.085412055747477  0.0000
  O2     O2        0.258911252431089    0.290698581246083    0.949125614444216  0.0000
  O2     O2        0.242439646534598    0.742425372119309    0.948611398935273  0.0000
