data_c00382.vasp
_audit_creation_method             Generated by GULP
_audit_author_name                 Salvador R. G. Balestra
_symmetry_space_group_name_H-M     'P 1             '
_symmetry_Int_Tables_number        1

loop_
_symmetry_equiv_pos_site_id
_symmetry_equiv_pos_as_xyz
_cell_length_a                       17.1199
_cell_length_b                        7.6007
_cell_length_c                       10.3362
_cell_angle_alpha                   89.6299
_cell_angle_beta                    89.9011
_cell_angle_gamma                   90.1392

loop_
_atom_site_label
_atom_site_type_symbol
_atom_site_fract_x
_atom_site_fract_y
_atom_site_fract_z
_atom_site_charge
  Ge     Ge        0.052090000000021    0.000000000000000    0.372269999999958  0.0000
  Ge     Ge        0.443438861609166    0.032425576281548    0.852736772264453  0.0000
  Ge     Ge        0.337652924046987    0.741106567733199    0.272738802144458  0.0000
  Ge     Ge        0.650035016290775    0.347218191607858    0.018346318186372  0.0000
  Si     Si        0.458177801986201    0.020273210987318    0.353369445393251  0.0000
  Si     Si        0.954404954825049    0.020253142577258    0.638212230944627  0.0000
  Si     Si        0.556411933948093    0.031739765452875    0.607553426225727  0.0000
  Si     Si        0.554184780925386    0.025709187551240    0.098523516929373  0.0000
  Si     Si        0.943928300433513    0.022053600921760    0.123751224346175  0.0000
  Si     Si        0.058212013982679    0.015964134053791    0.891102182067698  0.0000
  Si     Si        0.175989621840034    0.284277957763050    0.270592500121095  0.0000
  Si     Si        0.837165244646452    0.309064869599207    0.717184283343775  0.0000
  Si     Si        0.670301337222932    0.741620760007794    0.708968630924004  0.0000
  Si     Si        0.849597284914023    0.712831439767748    0.712090037313783  0.0000
  Si     Si        0.657503801448389    0.335434149675532    0.710905337206176  0.0000
  Si     Si        0.154432210635443    0.688576683843317    0.281516700719593  0.0000
  Si     Si        0.356136902090171    0.327535014789170    0.262416041199819  0.0000
  Si     Si        0.850050570226851    0.710147015529678    0.013769520741976  0.0000
  Si     Si        0.351694240891412    0.348660306504639    0.963271039257014  0.0000
  Si     Si        0.150716025824321    0.697292542778392    0.979531066355610  0.0000
  Si     Si        0.330729570080164    0.751530774497541    0.968334728465648  0.0000
  Si     Si        0.171792078332336    0.300660982704999    0.969373508568719  0.0000
  Si     Si        0.669890314701588    0.751191714853763    0.011779805998031  0.0000
  Si     Si        0.833818857205222    0.312406344464153    0.020734161668748  0.0000
  O3     O3        0.129146395042840    0.144614209160305    0.353473940065909  0.0000
  O3     O3        0.392611097731311    0.872522944599088    0.372833086655740  0.0000
  O2     O2        0.889862207412206    0.175314789449229    0.636333864596540  0.0000
  O2     O2        0.618099867734490    0.873229291247924    0.624730233921674  0.0000
  O2     O2        0.909195852488666    0.832683606444413    0.629533466012985  0.0000
  O2     O2        0.599848579391471    0.218668309867436    0.624053934812269  0.0000
  O3     O3        0.090637716899420    0.790686374015783    0.364095047109144  0.0000
  O2     O2        0.415882847591001    0.209549900231489    0.344641440285589  0.0000
  O3     O3        0.014073182898400    0.039061726813393    0.522918163004094  0.0000
  O2     O2        0.522985494680386    0.023757311569729    0.463540875078626  0.0000
  O3     O3        0.975891063395192    0.030961854554479    0.267012681621886  0.0000
  O2     O2        0.502331858667207    0.972588335092677    0.220641449034680  0.0000
  O2     O2        0.002723381811344    0.035157495596411    0.769934031411957  0.0000
  O3     O3        0.483193204334240    0.012147007923112    0.701972345969409  0.0000
  O3     O3        0.581731021940471    0.227186261638593    0.103828428544584  0.0000
  O2     O2        0.906398331667050    0.830039695219164    0.099105535252658  0.0000
  O3     O3        0.409314271139385    0.245406486514959    0.870818331128721  0.0000
  O2     O2        0.092483293897238    0.818107710630994    0.895957764490876  0.0000
  O3     O3        0.367187238360405    0.884276706012893    0.866230172411470  0.0000
  O2     O2        0.127953845582724    0.159315312678171    0.880218252478392  0.0000
  O2     O2        0.632901650230606    0.906964902465845    0.094834190903670  0.0000
  O2     O2        0.879198616631355    0.172844840408476    0.107942576125191  0.0000
  O3     O3        0.509985963918516    0.975976275661419    0.968281664744264  0.0000
  O2     O2        0.013186245152762    0.059694981632152    0.022960889263467  0.0000
  O2     O2        0.144760187563747    0.479524760804518    0.301775027814346  0.0000
  O3     O3        0.372346839143090    0.529265715303413    0.288991806310431  0.0000
  O2     O2        0.867026824284144    0.507369594002424    0.687909187594621  0.0000
  O2     O2        0.640986703666803    0.542150447019207    0.686128288950046  0.0000
  O2     O2        0.267877182284501    0.275594317988629    0.303992792036881  0.0000
  O3     O3        0.241177299736075    0.747011404345387    0.320345982344523  0.0000
  O2     O2        0.747044170345472    0.291258010158631    0.674079990038443  0.0000
  O2     O2        0.761189318058070    0.758001770997241    0.668846864923384  0.0000
  O2     O2        0.164818234453825    0.242383036327153    0.118909393089184  0.0000
  O3     O3        0.344635979543221    0.814189094850383    0.114476468845268  0.0000
  O2     O2        0.840931006255911    0.263808594518100    0.869366603506491  0.0000
  O2     O2        0.661752530371752    0.791776118414163    0.858838952023471  0.0000
  O2     O2        0.861974770694986    0.757746176673062    0.862904722716705  0.0000
  O3     O3        0.638911703102296    0.287262785004080    0.858321405311513  0.0000
  O2     O2        0.139264602817564    0.739185594952552    0.130887835261843  0.0000
  O2     O2        0.368211158425194    0.283838976735498    0.110304169192650  0.0000
  O3     O3        0.629041656341806    0.566026146288222    0.041502952279880  0.0000
  O2     O2        0.870686920415233    0.506706486070040    0.041799390525356  0.0000
  O2     O2        0.367862199642357    0.556664929401463    0.952833067414507  0.0000
  O2     O2        0.132812261158375    0.492907237016053    0.949645438263615  0.0000
  O3     O3        0.744737132258665    0.308564106849755    0.064776898061387  0.0000
  O2     O2        0.760391476620409    0.741910572266903    0.051961668811729  0.0000
  O2     O2        0.262023510625560    0.305796218235982    0.926309017555956  0.0000
  O2     O2        0.238750628909389    0.741268940623258    0.939153178176952  0.0000
