data_c00386.vasp
_audit_creation_method             Generated by GULP
_audit_author_name                 Salvador R. G. Balestra
_symmetry_space_group_name_H-M     'P 1             '
_symmetry_Int_Tables_number        1

loop_
_symmetry_equiv_pos_site_id
_symmetry_equiv_pos_as_xyz
_cell_length_a                       17.2712
_cell_length_b                        7.6487
_cell_length_c                       10.1509
_cell_angle_alpha                   89.7644
_cell_angle_beta                    90.1449
_cell_angle_gamma                   90.2648

loop_
_atom_site_label
_atom_site_type_symbol
_atom_site_fract_x
_atom_site_fract_y
_atom_site_fract_z
_atom_site_charge
  Ge     Ge        0.052090000000021    0.000000000000000    0.372269999999958  0.0000
  Ge     Ge        0.446109144916412    0.022009246023558    0.863844651704102  0.0000
  Ge     Ge        0.336583395818802    0.738016743067182    0.265258718489800  0.0000
  Ge     Ge        0.328297364500551    0.734784168185763    0.947961245506586  0.0000
  Si     Si        0.457294102131060    0.023502930444506    0.363507189992262  0.0000
  Si     Si        0.955146158292564    0.017085951915993    0.639152306672681  0.0000
  Si     Si        0.561765118807938    0.025305854050374    0.616793828557867  0.0000
  Si     Si        0.555662487769166    0.009317999477701    0.109512964261860  0.0000
  Si     Si        0.937905687288005    0.013894286040575    0.132865989491176  0.0000
  Si     Si        0.053080091989643    0.999055684082057    0.899571442958683  0.0000
  Si     Si        0.173003668469204    0.289248167519597    0.276154776597507  0.0000
  Si     Si        0.843892218346606    0.313243781372295    0.707638452949716  0.0000
  Si     Si        0.668785467799058    0.727122800467832    0.699049147718663  0.0000
  Si     Si        0.848337379231538    0.714158428798231    0.711615938932602  0.0000
  Si     Si        0.665675429768963    0.327464204398158    0.692805976576346  0.0000
  Si     Si        0.159278396205636    0.690983299605075    0.274880431587599  0.0000
  Si     Si        0.351435771006769    0.320941689728132    0.262378510744887  0.0000
  Si     Si        0.655535730869234    0.320502931260415    0.001141802880088  0.0000
  Si     Si        0.843095189625928    0.705703972724791    0.018205402830399  0.0000
  Si     Si        0.346085515462697    0.328161095552406    0.958987598458783  0.0000
  Si     Si        0.151594390314502    0.681531099766291    0.962393448981273  0.0000
  Si     Si        0.166637835591362    0.288327717731722    0.969468332085024  0.0000
  Si     Si        0.663652131071171    0.719185115568404    0.006630500646618  0.0000
  Si     Si        0.833868876653074    0.306529738314405    0.015638583754418  0.0000
  O3     O3        0.123792047598148    0.156183912298425    0.361610907425802  0.0000
  O3     O3        0.398602034955279    0.862690473067369    0.358646879103168  0.0000
  O2     O2        0.898746167790701    0.185228050346203    0.625346060273452  0.0000
  O2     O2        0.618926912944227    0.857925950196428    0.609010838240050  0.0000
  O2     O2        0.903375076286510    0.840641625137348    0.627236899800321  0.0000
  O2     O2        0.612564821250329    0.202892263571407    0.603143976671331  0.0000
  O3     O3        0.091198277618880    0.797797691014784    0.341207305817579  0.0000
  O2     O2        0.410181246520731    0.204191359254628    0.347499061645518  0.0000
  O3     O3        0.021271592309558    0.014682189172366    0.532865985723066  0.0000
  O2     O2        0.496106957385712    0.021169932239578    0.506938608091587  0.0000
  O3     O3        0.969429681597388    0.028761044015133    0.279170099837984  0.0000
  O2     O2        0.526998272239414    0.011013462689449    0.259445392376170  0.0000
  O2     O2        0.994147584631795    0.026476407758010    0.782134962286885  0.0000
  O3     O3        0.520918308003235    0.020614733832523    0.756665690613712  0.0000
  O2     O2        0.595398940752100    0.195850584207192    0.075427569282558  0.0000
  O2     O2        0.895334350057082    0.827673722536903    0.110616938723689  0.0000
  O3     O3        0.399654402628296    0.221120372996513    0.862187770372437  0.0000
  O2     O2        0.085595062684641    0.801575000033647    0.896963205712058  0.0000
  O1     O1        0.377382255545470    0.864155889012963    0.839850915557336  0.0000
  O2     O2        0.122927062479794    0.139539329579649    0.886256242113164  0.0000
  O2     O2        0.616720190182667    0.851839457214862    0.096073913004165  0.0000
  O2     O2        0.878916707347061    0.171879827191571    0.107329907359019  0.0000
  O3     O3        0.483424357140958    0.972194075757655    0.017943293683588  0.0000
  O2     O2        0.012014977241639    0.032848350444154    0.038575970456870  0.0000
  O2     O2        0.144244479481908    0.485809342851097    0.303565187729244  0.0000
  O3     O3        0.368492510478903    0.523765735425899    0.277429804161513  0.0000
  O2     O2        0.868996808608072    0.513439790162917    0.679499634269918  0.0000
  O2     O2        0.645702313534337    0.528880967867723    0.661022817438066  0.0000
  O2     O2        0.264036204856542    0.276509596608733    0.310571240545710  0.0000
  O3     O3        0.243139077760904    0.747423029053126    0.327874588018698  0.0000
  O2     O2        0.755220204640471    0.287386450603851    0.661828727975184  0.0000
  O2     O2        0.759795276597911    0.755680644087816    0.673066449746264  0.0000
  O2     O2        0.160371423201358    0.239324306917946    0.123226716831037  0.0000
  O1     O1        0.336403438077751    0.810609641561038    0.106297572944311  0.0000
  O2     O2        0.850336617159325    0.268277589637393    0.862573110090371  0.0000
  O2     O2        0.650940917570366    0.763293368436850    0.852584769012334  0.0000
  O2     O2        0.861817194974258    0.750316001974778    0.866436266501969  0.0000
  O2     O2        0.647764201211182    0.287052230393755    0.845554482651190  0.0000
  O2     O2        0.161839256372570    0.723362430634192    0.117231970390589  0.0000
  O2     O2        0.360438467192122    0.264198882060452    0.109640795905670  0.0000
  O2     O2        0.634690603445380    0.521163437628949    0.034476109980306  0.0000
  O2     O2        0.861752411987077    0.503235569697336    0.049895182859330  0.0000
  O3     O3        0.367872545672132    0.528374278469975    0.944947665058331  0.0000
  O2     O2        0.128051573121870    0.477901548979774    0.942116582308664  0.0000
  O2     O2        0.743110621908390    0.281889609274839    0.046492262185901  0.0000
  O2     O2        0.753166482277393    0.740858640543958    0.045693726563080  0.0000
  O2     O2        0.255575450620335    0.294895578217921    0.923891353552250  0.0000
  O3     O3        0.232957950533366    0.722590383068228    0.896076290460923  0.0000
