data_c00334.vasp
_audit_creation_method             Generated by GULP
_audit_author_name                 Salvador R. G. Balestra
_symmetry_space_group_name_H-M     'P 1             '
_symmetry_Int_Tables_number        1

loop_
_symmetry_equiv_pos_site_id
_symmetry_equiv_pos_as_xyz
_cell_length_a                       17.2832
_cell_length_b                        7.6555
_cell_length_c                       10.1522
_cell_angle_alpha                   90.3868
_cell_angle_beta                    89.8598
_cell_angle_gamma                   90.3013

loop_
_atom_site_label
_atom_site_type_symbol
_atom_site_fract_x
_atom_site_fract_y
_atom_site_fract_z
_atom_site_charge
  Ge     Ge        0.052090000000021    0.000000000000000    0.372269999999958  0.0000
  Ge     Ge        0.938576391866717    0.006646143537956    0.111709325791384  0.0000
  Ge     Ge        0.662760666759080    0.710919016313288    0.712188382394063  0.0000
  Ge     Ge        0.329609540476117    0.721217560666141    0.970291754626055  0.0000
  Si     Si        0.447364083552218    0.018634345367939    0.378815461289564  0.0000
  Si     Si        0.950688440001234    0.995773628041492    0.633347457841378  0.0000
  Si     Si        0.549769273436445    0.005570521112717    0.632900204660429  0.0000
  Si     Si        0.547956306443610    0.004958939646895    0.125093613994315  0.0000
  Si     Si        0.440155523911087    0.008518557887290    0.881955752763318  0.0000
  Si     Si        0.053739612493467    0.000188742939982    0.875448948888757  0.0000
  Si     Si        0.167937703093918    0.291074950600787    0.293664927642167  0.0000
  Si     Si        0.335924080402335    0.724422084268900    0.284412369238512  0.0000
  Si     Si        0.837307932420762    0.288689265719216    0.735574856727840  0.0000
  Si     Si        0.844095378816332    0.694396576453709    0.730889522726313  0.0000
  Si     Si        0.659513161655115    0.302215409185745    0.713780282034833  0.0000
  Si     Si        0.158136130558487    0.692507507408212    0.295618596264636  0.0000
  Si     Si        0.346665744894021    0.321660674416637    0.281327621285461  0.0000
  Si     Si        0.646619829301324    0.315177432793396    0.022316190752628  0.0000
  Si     Si        0.834930824288032    0.692686094489982    0.038867806359670  0.0000
  Si     Si        0.343217443231294    0.318208609807078    0.974943929508355  0.0000
  Si     Si        0.148515808358048    0.690876666145895    0.987176989126049  0.0000
  Si     Si        0.162750027468307    0.290480769272992    0.987627694457558  0.0000
  Si     Si        0.656659420974738    0.715106531490329    0.026018625258928  0.0000
  Si     Si        0.823830712897343    0.294755674376179    0.042153165375212  0.0000
  O3     O3        0.120427447198904    0.165856748587892    0.387470424879458  0.0000
  O2     O2        0.387725030948933    0.856601311246396    0.370543303094142  0.0000
  O2     O2        0.893967338652925    0.158918424524657    0.658929775994867  0.0000
  O3     O3        0.601864569303183    0.835064546920264    0.618443790989600  0.0000
  O2     O2        0.906735366857112    0.811748681975732    0.654829469388701  0.0000
  O2     O2        0.608137395289049    0.170325372860373    0.627293177995402  0.0000
  O3     O3        0.100958130192932    0.804063276346556    0.383972778805147  0.0000
  O2     O2        0.403362399857957    0.202675364181795    0.366206333231124  0.0000
  O3     O3        0.977987718650050    0.008126961900325    0.484259131654761  0.0000
  O2     O2        0.485995512179938    0.016574537537183    0.520762840091210  0.0000
  O1     O1        0.010456714298451    0.024722786271931    0.221853686612476  0.0000
  O2     O2        0.514896585744177    0.002055782867833    0.271607480387516  0.0000
  O2     O2        0.028413247249928    0.003299291735546    0.722293476440176  0.0000
  O2     O2        0.504549903714681    0.006397488175706    0.770797414360794  0.0000
  O2     O2        0.586768564584406    0.193766223578173    0.100143683274517  0.0000
  O3     O3        0.891004506266444    0.808055115616052    0.126667844893503  0.0000
  O2     O2        0.395515758605827    0.193132908918347    0.884622838897005  0.0000
  O2     O2        0.085765684442364    0.808226546514710    0.912540583736464  0.0000
  O3     O3        0.377288958934442    0.857172501066359    0.863645670110921  0.0000
  O2     O2        0.118411719422627    0.149961620948730    0.897876247762377  0.0000
  O2     O2        0.609424850901668    0.848737528263591    0.116881781737393  0.0000
  O3     O3        0.869340004137864    0.167133476100157    0.134795217799388  0.0000
  O2     O2        0.479664296073833    0.968374587422823    0.022175522264960  0.0000
  O3     O3        0.977720418498871    0.039200877729747    0.957647015341554  0.0000
  O2     O2        0.140331172020965    0.489019197586944    0.318557833763714  0.0000
  O2     O2        0.365540819936699    0.526050053924512    0.305123361115732  0.0000
  O2     O2        0.863287654224010    0.489027937586201    0.710212866366375  0.0000
  O3     O3        0.638056896661369    0.497311252664051    0.678504359981891  0.0000
  O2     O2        0.259101162569632    0.277931555814804    0.323819025985909  0.0000
  O2     O2        0.246954347255538    0.737444693726890    0.331876667047879  0.0000
  O2     O2        0.749792380349508    0.263836902802478    0.682825123520082  0.0000
  O3     O3        0.759693041930627    0.736900403265949    0.675881978767308  0.0000
  O2     O2        0.153171873334362    0.237942958520231    0.140515086297980  0.0000
  O3     O3        0.341391480441469    0.778452700205267    0.133207274244325  0.0000
  O2     O2        0.838458021986772    0.242274406110735    0.889616852774826  0.0000
  O3     O3        0.648583123723259    0.767901270821203    0.874977798579531  0.0000
  O2     O2        0.847998924389056    0.741833888335317    0.885694223945361  0.0000
  O2     O2        0.642654883647235    0.269164613542213    0.868108610918679  0.0000
  O2     O2        0.144343073056397    0.739352230467753    0.142035317950637  0.0000
  O2     O2        0.359042326864448    0.275172069670810    0.127951384181799  0.0000
  O2     O2        0.624140094423414    0.517690093806594    0.045035861992970  0.0000
  O2     O2        0.854503876201762    0.491369000200430    0.065652607894508  0.0000
  O3     O3        0.365347030923624    0.514321257835631    0.943070581555363  0.0000
  O2     O2        0.128810055997846    0.484897961278925    0.965413717346611  0.0000
  O2     O2        0.732776970050522    0.281735651107285    0.075213021817394  0.0000
  O2     O2        0.745308125923187    0.727286966003604    0.072838883323966  0.0000
  O2     O2        0.252399723846937    0.286988353416525    0.945525712071500  0.0000
  O3     O3        0.232802355646755    0.730318446713030    0.931397252127743  0.0000
