data_c00358.vasp
_audit_creation_method             Generated by GULP
_audit_author_name                 Salvador R. G. Balestra
_symmetry_space_group_name_H-M     'P 1             '
_symmetry_Int_Tables_number        1

loop_
_symmetry_equiv_pos_site_id
_symmetry_equiv_pos_as_xyz
_cell_length_a                       17.0244
_cell_length_b                        7.5651
_cell_length_c                       10.4268
_cell_angle_alpha                   90.2299
_cell_angle_beta                    90.1421
_cell_angle_gamma                   90.3035

loop_
_atom_site_label
_atom_site_type_symbol
_atom_site_fract_x
_atom_site_fract_y
_atom_site_fract_z
_atom_site_charge
  Ge     Ge        0.052090000000021    0.000000000000000    0.372269999999958  0.0000
  Ge     Ge        0.445758003468366    0.031631057229524    0.866874462348957  0.0000
  Ge     Ge        0.058182815349990    0.009933738904796    0.890478334000913  0.0000
  Ge     Ge        0.649401114653241    0.351215186964089    0.018591074496188  0.0000
  Si     Si        0.455884790459459    0.023585892000342    0.356092110811829  0.0000
  Si     Si        0.951559162447953    0.014889341683963    0.633549728127835  0.0000
  Si     Si        0.551625006217210    0.023855045678639    0.615625527482619  0.0000
  Si     Si        0.557329337932130    0.028513088698098    0.108406385785163  0.0000
  Si     Si        0.946169330863700    0.025623631946277    0.124946794719504  0.0000
  Si     Si        0.177503195208167    0.281488285736954    0.268594402385089  0.0000
  Si     Si        0.335859291471436    0.741541516477889    0.274416108512889  0.0000
  Si     Si        0.834004429166058    0.299810136875519    0.715772981650176  0.0000
  Si     Si        0.668863581427954    0.740424770256306    0.711642702707956  0.0000
  Si     Si        0.849153802317692    0.704848236902936    0.708608946674414  0.0000
  Si     Si        0.652689340168134    0.332006619013085    0.715267708924275  0.0000
  Si     Si        0.155133068077051    0.689455576723985    0.277244830536391  0.0000
  Si     Si        0.357190256881392    0.336255908191647    0.267293836029822  0.0000
  Si     Si        0.853632668150602    0.709609586744461    0.007448253411906  0.0000
  Si     Si        0.358350731343445    0.356331744210423    0.969414946697447  0.0000
  Si     Si        0.149286080728571    0.686697268983506    0.981427862173527  0.0000
  Si     Si        0.330040559276617    0.753130896768949    0.976592653983703  0.0000
  Si     Si        0.178290772032092    0.288650356316713    0.971761913552173  0.0000
  Si     Si        0.672476348172814    0.757454472866879    0.011334753127464  0.0000
  Si     Si        0.834671356427342    0.310154765267235    0.016610345509208  0.0000
  O3     O3        0.127443283927175    0.150674833120835    0.353763647139690  0.0000
  O2     O2        0.386114428930752    0.877659885571425    0.361101380276549  0.0000
  O2     O2        0.883469451545279    0.164263859047313    0.630092362779451  0.0000
  O2     O2        0.617148190600041    0.870833383718048    0.626141152617391  0.0000
  O2     O2        0.909239701535216    0.821711664460843    0.624983028261891  0.0000
  O2     O2        0.593395519804555    0.215317628673180    0.629113070409142  0.0000
  O3     O3        0.094125999945136    0.792481470345090    0.364641286176268  0.0000
  O2     O2        0.418497540590996    0.219365053265368    0.347909216595309  0.0000
  O3     O3        0.014084414431053    0.033479437278743    0.522999248278474  0.0000
  O2     O2        0.510443818474639    0.010814031249772    0.478996027289264  0.0000
  O3     O3        0.973268113687404    0.025352117694112    0.270824207614902  0.0000
  O2     O2        0.511442112850458    0.980842288594179    0.236439590173267  0.0000
  O3     O3        0.995812836368587    0.043617429783297    0.767108393202728  0.0000
  O3     O3        0.483947028844381    0.995407713909900    0.718614887737481  0.0000
  O3     O3        0.582474100092089    0.232871994594187    0.107265811885073  0.0000
  O2     O2        0.913841341418010    0.830359669703514    0.086420572501995  0.0000
  O3     O3        0.418940819689187    0.251220566357982    0.883052824122158  0.0000
  O3     O3        0.089616325656475    0.792995498950227    0.894023324999623  0.0000
  O3     O3        0.363119336605151    0.900584477700712    0.884794790757109  0.0000
  O3     O3        0.138895938922784    0.149776171210709    0.878026449933980  0.0000
  O2     O2        0.637778021158559    0.914291239096473    0.097346047642833  0.0000
  O2     O2        0.878603211896473    0.171130055872103    0.105612643761457  0.0000
  O3     O3        0.508545705713893    0.966991226267172    0.985431991037046  0.0000
  O3     O3        0.017937222839056    0.074086547348513    0.034620568648988  0.0000
  O2     O2        0.145590421140554    0.479489910825953    0.293083870159343  0.0000
  O2     O2        0.368954595198509    0.543991659140064    0.297376856546125  0.0000
  O2     O2        0.864664792406924    0.497702051963760    0.684536247393956  0.0000
  O2     O2        0.637980511749625    0.540039170156920    0.692055953753928  0.0000
  O2     O2        0.269510888220072    0.276250661207352    0.306193539638002  0.0000
  O2     O2        0.244322953277960    0.748119835225263    0.313568542235440  0.0000
  O2     O2        0.742247432951559    0.283802033091626    0.679339108483705  0.0000
  O2     O2        0.759928123805828    0.752777648955422    0.669951013606890  0.0000
  O2     O2        0.170083500339561    0.225822832643798    0.119525801657588  0.0000
  O2     O2        0.343735660120147    0.800349543096229    0.126529743677247  0.0000
  O2     O2        0.842340951234805    0.256973139822670    0.866676082161539  0.0000
  O2     O2        0.661858451221343    0.797475850368704    0.859927343583800  0.0000
  O2     O2        0.865228556141850    0.752267162067766    0.857352011935321  0.0000
  O3     O3        0.633936716793237    0.285450794933306    0.861327825065228  0.0000
  O2     O2        0.135188931405920    0.742395481488066    0.130153637052266  0.0000
  O2     O2        0.373625520367794    0.299671916370333    0.117264856825388  0.0000
  O3     O3        0.630951520714677    0.572266480918374    0.041213415044610  0.0000
  O2     O2        0.872812908205398    0.505265975707691    0.036331691313763  0.0000
  O2     O2        0.372248049268042    0.564930335716934    0.949928439403839  0.0000
  O2     O2        0.135763487796763    0.478619397335622    0.959162424750778  0.0000
  O3     O3        0.745259449400606    0.310857460347619    0.059532453464906  0.0000
  O2     O2        0.764292174984842    0.747417745427307    0.046880750715200  0.0000
  O2     O2        0.269238080863743    0.305979861553968    0.932705489767444  0.0000
  O2     O2        0.238116916340725    0.737598701577298    0.945327280848623  0.0000
