data_c00305.vasp
_audit_creation_method             Generated by GULP
_audit_author_name                 Salvador R. G. Balestra
_symmetry_space_group_name_H-M     'P 1             '
_symmetry_Int_Tables_number        1

loop_
_symmetry_equiv_pos_site_id
_symmetry_equiv_pos_as_xyz
_cell_length_a                       17.1899
_cell_length_b                        7.6048
_cell_length_c                       10.2973
_cell_angle_alpha                   88.8333
_cell_angle_beta                    90.2805
_cell_angle_gamma                   90.1244

loop_
_atom_site_label
_atom_site_type_symbol
_atom_site_fract_x
_atom_site_fract_y
_atom_site_fract_z
_atom_site_charge
  Ge     Ge        0.052090000000021    0.000000000000000    0.372269999999958  0.0000
  Ge     Ge        0.939869652377045    0.009772257604241    0.111855720858547  0.0000
  Ge     Ge        0.354550944222404    0.679301236720126    0.282879185481029  0.0000
  Ge     Ge        0.847244745045523    0.337166959352690    0.722626069157490  0.0000
  Si     Si        0.455903474357813    0.988945913390673    0.366812439224492  0.0000
  Si     Si        0.951015770853036    0.032465777551196    0.629518261532626  0.0000
  Si     Si        0.547564007217650    0.016943620980001    0.630229619903072  0.0000
  Si     Si        0.551957178692051    0.997569946703410    0.109585160128861  0.0000
  Si     Si        0.436559356102331    0.009049807399796    0.873199515721153  0.0000
  Si     Si        0.053683213816251    0.014219441135465    0.874866992076350  0.0000
  Si     Si        0.156758104884804    0.310905998155211    0.287611486591746  0.0000
  Si     Si        0.652094417130900    0.708513941957212    0.719630217352203  0.0000
  Si     Si        0.830182073929470    0.750737647122992    0.734094302849339  0.0000
  Si     Si        0.665637360220669    0.305426702403250    0.712204636581139  0.0000
  Si     Si        0.171199574238617    0.717658255824707    0.291943214623989  0.0000
  Si     Si        0.336128026813244    0.269806696168905    0.274840717991694  0.0000
  Si     Si        0.665113339021020    0.287888834818914    0.017838974493087  0.0000
  Si     Si        0.821509729868599    0.728278235683329    0.036263761170847  0.0000
  Si     Si        0.327835366427460    0.293067463224472    0.970591593542953  0.0000
  Si     Si        0.164211829118471    0.726199830690249    0.989514424137984  0.0000
  Si     Si        0.344931077939176    0.693200758044346    0.974527050729403  0.0000
  Si     Si        0.148294654873349    0.323307786424127    0.986551153596599  0.0000
  Si     Si        0.643967085393350    0.682058878386090    0.022820065155458  0.0000
  Si     Si        0.843757634066550    0.330086144283270    0.031037818010878  0.0000
  O3     O3        0.099569249814237    0.200820412853392    0.377831434832058  0.0000
  O3     O3        0.422724299844851    0.792872375677194    0.370899350003634  0.0000
  O3     O3        0.916190281794213    0.227446450330195    0.634864630212362  0.0000
  O2     O2        0.593228078924781    0.832130170232461    0.638517237416834  0.0000
  O2     O2        0.879510559945242    0.901645007092532    0.662469785547226  0.0000
  O2     O2        0.608708619777589    0.176681017729905    0.635684777509121  0.0000
  O3     O3        0.121684232669628    0.836534049856586    0.385409771077907  0.0000
  O2     O2        0.381186460399906    0.116159121144287    0.351528792045676  0.0000
  O3     O3        0.981216544955879    0.989970889178086    0.488133283980095  0.0000
  O2     O2        0.503196067338100    0.033327813697558    0.494885963275379  0.0000
  O1     O1        0.006543271394130    0.968512963915091    0.227654492413017  0.0000
  O2     O2        0.513456526358072    0.023079639573624    0.247324362142426  0.0000
  O2     O2        0.025553050852283    0.009866535123531    0.725518786178254  0.0000
  O2     O2        0.483121137224577    0.030244602392643    0.740984179553602  0.0000
  O2     O2        0.623000241465253    0.134201560494103    0.098183306777276  0.0000
  O3     O3        0.863755960018040    0.860693102202897    0.128512924350267  0.0000
  O2     O2        0.370004991962493    0.158528356495958    0.876350503512132  0.0000
  O2     O2        0.119183289618783    0.865481699003889    0.898754499803745  0.0000
  O2     O2        0.396888034495863    0.816306731985991    0.879670706998815  0.0000
  O2     O2        0.088178046641858    0.208538527038190    0.903936486724580  0.0000
  O2     O2        0.582982540790296    0.797417814630719    0.101960636347564  0.0000
  O3     O3        0.900676451902780    0.218550103013094    0.122714592490068  0.0000
  O2     O2        0.492396039324078    0.042246730293656    0.994569797557868  0.0000
  O3     O3        0.980229726272161    0.973170110072449    0.962101067066863  0.0000
  O2     O2        0.144749184176846    0.515792754157011    0.312474054028522  0.0000
  O3     O3        0.369851683425122    0.458207811559891    0.310384657544299  0.0000
  O3     O3        0.864179434881121    0.560603218462518    0.705111081421403  0.0000
  O2     O2        0.636551864348862    0.505547180428900    0.686308460525034  0.0000
  O2     O2        0.245939305480938    0.257850903352184    0.316085820207261  0.0000
  O3     O3        0.261452301259141    0.735499623394942    0.325686684929750  0.0000
  O3     O3        0.754103292896850    0.290034300928025    0.667890681946559  0.0000
  O2     O2        0.740675004269812    0.759334137627554    0.683656751782313  0.0000
  O2     O2        0.136235012054589    0.267773894291146    0.137265129101887  0.0000
  O3     O3        0.368424926630958    0.733803647838298    0.120868898633681  0.0000
  O3     O3        0.858861518115642    0.275284509739937    0.883382201560341  0.0000
  O2     O2        0.636643594444049    0.738140619326370    0.871708719900522  0.0000
  O2     O2        0.830292570779457    0.791331322174903    0.886640978570938  0.0000
  O2     O2        0.662345707475504    0.253202376265636    0.864660585840534  0.0000
  O2     O2        0.156180361672035    0.775252697333959    0.140626967188878  0.0000
  O2     O2        0.343002091593908    0.240815026559553    0.120530756100056  0.0000
  O2     O2        0.624325089382381    0.475877717553097    0.045027737024123  0.0000
  O2     O2        0.860513032422168    0.535705429182511    0.051060241954493  0.0000
  O2     O2        0.360562824345747    0.489340687132718    0.942540272939536  0.0000
  O2     O2        0.129992676692114    0.530464972127144    0.965710953466677  0.0000
  O2     O2        0.753891260771793    0.289190762309860    0.065690804989325  0.0000
  O2     O2        0.730801871233019    0.718507666171291    0.073609081635145  0.0000
  O2     O2        0.235876387648097    0.284590683458287    0.941238710165142  0.0000
  O2     O2        0.254214770194167    0.734352605902683    0.950631903260461  0.0000
