data_c00329.vasp
_audit_creation_method             Generated by GULP
_audit_author_name                 Salvador R. G. Balestra
_symmetry_space_group_name_H-M     'P 1             '
_symmetry_Int_Tables_number        1

loop_
_symmetry_equiv_pos_site_id
_symmetry_equiv_pos_as_xyz
_cell_length_a                       17.2628
_cell_length_b                        7.6299
_cell_length_c                       10.2013
_cell_angle_alpha                   90.2651
_cell_angle_beta                    89.6602
_cell_angle_gamma                   90.4977

loop_
_atom_site_label
_atom_site_type_symbol
_atom_site_fract_x
_atom_site_fract_y
_atom_site_fract_z
_atom_site_charge
  Ge     Ge        0.052090000000021    0.000000000000000    0.372269999999958  0.0000
  Ge     Ge        0.942239268015926    0.010945164552919    0.109279858886759  0.0000
  Ge     Ge        0.652599390399121    0.679755917306820    0.717635770080416  0.0000
  Ge     Ge        0.669142118349788    0.260348846500656    0.724515592296986  0.0000
  Si     Si        0.449152437246013    0.997305486246462    0.382462990924540  0.0000
  Si     Si        0.953027438838460    0.007506984813058    0.635033598988700  0.0000
  Si     Si        0.546742697256292    0.979884988611152    0.637893339673714  0.0000
  Si     Si        0.555678593932015    0.991079391915046    0.136522773168215  0.0000
  Si     Si        0.445025867393006    0.002613950481802    0.895474164151616  0.0000
  Si     Si        0.058581248626643    0.996609061512622    0.871885596479561  0.0000
  Si     Si        0.160415376187516    0.305127375751685    0.291602228740938  0.0000
  Si     Si        0.346586512614042    0.692126734047799    0.285423071216506  0.0000
  Si     Si        0.849479836972188    0.310547085655257    0.735621356909799  0.0000
  Si     Si        0.833861291769071    0.716785391877890    0.730002556463590  0.0000
  Si     Si        0.167532983855656    0.710702214919668    0.291867837644464  0.0000
  Si     Si        0.339185483926345    0.290384906702545    0.283644668696644  0.0000
  Si     Si        0.665711860294750    0.278479233990081    0.035738160252273  0.0000
  Si     Si        0.823916323537999    0.721852233319547    0.037359856785535  0.0000
  Si     Si        0.335504136286284    0.293017516940547    0.977129114831663  0.0000
  Si     Si        0.165020248117284    0.708922260469637    0.987740367989843  0.0000
  Si     Si        0.344663077605947    0.692039178217631    0.979824799756411  0.0000
  Si     Si        0.156434690008382    0.304727921141149    0.987143074591875  0.0000
  Si     Si        0.647040666567539    0.679282694099472    0.029062152671197  0.0000
  Si     Si        0.843296554822654    0.327713885404784    0.042589766503488  0.0000
  O3     O3        0.104316891810167    0.194266371828528    0.382477356083277  0.0000
  O2     O2        0.402460073300143    0.814597022859353    0.370732252709429  0.0000
  O2     O2        0.914636491510840    0.196219165860632    0.662664458604938  0.0000
  O3     O3        0.583546781093751    0.789264850890382    0.629244262874330  0.0000
  O2     O2        0.892312398516009    0.849287013952107    0.658290639873272  0.0000
  O3     O3        0.619494912569903    0.111527846981472    0.630724855580127  0.0000
  O3     O3        0.117744624594230    0.830315224443685    0.386295269675707  0.0000
  O2     O2        0.391720349416804    0.159933415747613    0.365290145112622  0.0000
  O3     O3        0.978699336969275    0.997161563955964    0.485368196019301  0.0000
  O2     O2        0.484145737740739    0.011323485831050    0.526218862664526  0.0000
  O1     O1        0.009896267209503    0.974958130589649    0.222988099915410  0.0000
  O2     O2        0.519731046397685    0.003619820048682    0.280518155784327  0.0000
  O2     O2        0.031435187375289    0.989219791413771    0.720610365708733  0.0000
  O2     O2        0.503269004987504    0.016226540270505    0.775296041330812  0.0000
  O2     O2        0.621399512209884    0.141883185351996    0.129627703211546  0.0000
  O3     O3        0.865994617811922    0.863470208854071    0.124608754287816  0.0000
  O2     O2        0.383078959520314    0.159561849978981    0.886730402332501  0.0000
  O2     O2        0.117318923416904    0.837400736351980    0.896030357758625  0.0000
  O2     O2        0.399598803934761    0.816180303541889    0.892446342531920  0.0000
  O2     O2        0.099663129943927    0.183945663004753    0.901634416978766  0.0000
  O2     O2        0.589594397146362    0.796000399680352    0.117704313364723  0.0000
  O3     O3        0.902425221153214    0.217754435904459    0.126665285400793  0.0000
  O2     O2        0.490838913330991    0.029643059984465    0.029619649993172  0.0000
  O3     O3        0.981931081909638    0.974765293160350    0.956517444836206  0.0000
  O2     O2        0.144164503911044    0.509122646290439    0.315453650958363  0.0000
  O2     O2        0.364348529325339    0.489759359457378    0.317046766867148  0.0000
  O2     O2        0.863744797548835    0.517580050783316    0.709481752531281  0.0000
  O1     O1        0.634549596668435    0.463784717971793    0.693037187211615  0.0000
  O2     O2        0.249623112801761    0.260453603157331    0.322762756669304  0.0000
  O2     O2        0.258358072990380    0.737400153312267    0.321485800160287  0.0000
  O3     O3        0.766216718930509    0.255678567115768    0.681914722840750  0.0000
  O3     O3        0.747588573532889    0.731473243597486    0.674230008092944  0.0000
  O2     O2        0.142544248915554    0.255957361514093    0.139373159009684  0.0000
  O2     O2        0.362026775523133    0.730320232866256    0.132224275861951  0.0000
  O2     O2        0.853599366269683    0.271078202619247    0.890517024950984  0.0000
  O3     O3        0.638283328976788    0.737304674765562    0.880249400134963  0.0000
  O2     O2        0.830014327812897    0.767099316589291    0.883323826270727  0.0000
  O3     O3        0.661041694181348    0.208651052678084    0.888555834122847  0.0000
  O2     O2        0.151724589193476    0.760834945659897    0.139670505352421  0.0000
  O2     O2        0.349826413693618    0.252270438661209    0.129550439476474  0.0000
  O2     O2        0.627155202929679    0.472051534513711    0.043549612081976  0.0000
  O2     O2        0.862627108102293    0.532526286203727    0.062275941387870  0.0000
  O2     O2        0.363217894882979    0.490688364087160    0.944173321104932  0.0000
  O2     O2        0.136891317384543    0.508710300302557    0.963098014447448  0.0000
  O2     O2        0.754389937058141    0.289004674003258    0.083791141362406  0.0000
  O2     O2        0.734070673047321    0.713850495794386    0.078622878606356  0.0000
  O2     O2        0.244862611317836    0.268901506639762    0.945525878473626  0.0000
  O2     O2        0.255127198120110    0.730586077912832    0.950005931211423  0.0000
