data_c00357.vasp
_audit_creation_method             Generated by GULP
_audit_author_name                 Salvador R. G. Balestra
_symmetry_space_group_name_H-M     'P 1             '
_symmetry_Int_Tables_number        1

loop_
_symmetry_equiv_pos_site_id
_symmetry_equiv_pos_as_xyz
_cell_length_a                       17.2045
_cell_length_b                        7.6230
_cell_length_c                       10.1789
_cell_angle_alpha                   90.4514
_cell_angle_beta                    89.8819
_cell_angle_gamma                   90.6002

loop_
_atom_site_label
_atom_site_type_symbol
_atom_site_fract_x
_atom_site_fract_y
_atom_site_fract_z
_atom_site_charge
  Ge     Ge        0.052090000000021    0.000000000000000    0.372269999999958  0.0000
  Ge     Ge        0.445424154141937    0.016730389845731    0.905385792891251  0.0000
  Ge     Ge        0.057969311492916    0.993781584713744    0.878346170116978  0.0000
  Ge     Ge        0.665918448787320    0.721267297285036    0.726572319618788  0.0000
  Si     Si        0.451020280775436    0.028299917235631    0.392520418330230  0.0000
  Si     Si        0.951625702129417    0.999848852136289    0.631722320413274  0.0000
  Si     Si        0.550840659165958    0.005290731269569    0.645795279950705  0.0000
  Si     Si        0.557025944708403    0.009678167899346    0.149352311731588  0.0000
  Si     Si        0.943818761327616    0.014584755901670    0.116755374072785  0.0000
  Si     Si        0.173893502924797    0.285576021457440    0.299787581616678  0.0000
  Si     Si        0.335311437899223    0.736109891558149    0.291867950857821  0.0000
  Si     Si        0.837042312975858    0.290352913839349    0.738355573737488  0.0000
  Si     Si        0.848351645169613    0.693971506551875    0.733049311259653  0.0000
  Si     Si        0.658034878700856    0.308755142289354    0.730679637433799  0.0000
  Si     Si        0.157066097408942    0.690304445330785    0.300547344116248  0.0000
  Si     Si        0.352965873501119    0.333672728939939    0.291961955512707  0.0000
  Si     Si        0.653394797798450    0.321309206769555    0.038142138214987  0.0000
  Si     Si        0.844813565528849    0.697636108764168    0.042228218864082  0.0000
  Si     Si        0.351872881753750    0.338687112789038    0.986777108255354  0.0000
  Si     Si        0.148759485736716    0.679222717656853    0.995889710567585  0.0000
  Si     Si        0.327077789084463    0.733620209540855    0.985057384759517  0.0000
  Si     Si        0.172405377516182    0.280071387365756    0.995923144529824  0.0000
  Si     Si        0.665035526459944    0.724740948361643    0.039346479592412  0.0000
  Si     Si        0.832101049564418    0.301099279165302    0.047120475401328  0.0000
  O3     O3        0.124087872930973    0.159512519458515    0.390912506607827  0.0000
  O2     O2        0.387056286539605    0.874818402642716    0.372841207767725  0.0000
  O2     O2        0.890889118416713    0.154368220017595    0.662375577958857  0.0000
  O3     O3        0.610062939257863    0.846887399695168    0.625147965165963  0.0000
  O2     O2        0.911998781822866    0.809895101612971    0.657220241631097  0.0000
  O2     O2        0.601365040334192    0.184859574715570    0.646079355156755  0.0000
  O3     O3        0.097736022410667    0.799939971145752    0.387277702626116  0.0000
  O2     O2        0.411898506600870    0.218280420430954    0.376421090884384  0.0000
  O3     O3        0.976856770842078    0.015516119697813    0.481874729096959  0.0000
  O2     O2        0.482729095886192    0.015625819488273    0.539700478256710  0.0000
  O3     O3        0.010859882766837    0.031176697422726    0.220864343491375  0.0000
  O2     O2        0.525130368348779    0.007732808323612    0.297610517999592  0.0000
  O3     O3        0.029439343358270    0.014078567419157    0.717282826219745  0.0000
  O3     O3        0.510641186385306    0.973495126337953    0.785163238267421  0.0000
  O2     O2        0.594153250869238    0.201429011037127    0.119875205440244  0.0000
  O2     O2        0.901525694572117    0.823447719164865    0.126108794824602  0.0000
  O3     O3        0.410254337105826    0.228300219350186    0.898667150391214  0.0000
  O3     O3        0.087967895944922    0.782158699765518    0.909895713764347  0.0000
  O3     O3        0.366656068054705    0.874248959038314    0.893393813709128  0.0000
  O3     O3        0.133771851454271    0.139581799481008    0.901459505323688  0.0000
  O2     O2        0.620949599975540    0.857370986350932    0.135922676389888  0.0000
  O2     O2        0.878727235028602    0.165415102825512    0.135681309469922  0.0000
  O3     O3        0.486760780572063    0.968088023534942    0.053754616057639  0.0000
  O3     O3        0.979543388092509    0.045286599838094    0.973624159276049  0.0000
  O2     O2        0.144930751329606    0.483895990981637    0.323146753146589  0.0000
  O2     O2        0.366673202577474    0.540400822859410    0.320308153977509  0.0000
  O2     O2        0.863343735902717    0.488370377778903    0.702610055615013  0.0000
  O3     O3        0.639498250930604    0.506310580294322    0.697876429625705  0.0000
  O2     O2        0.265481537500608    0.277988219269049    0.331801666054183  0.0000
  O2     O2        0.245496880753330    0.747365324661262    0.336982658344836  0.0000
  O2     O2        0.747390083712033    0.262030252809685    0.695939010047399  0.0000
  O3     O3        0.763079191083528    0.746479547486631    0.688534270332310  0.0000
  O2     O2        0.161332773409395    0.225022325353312    0.148103663490125  0.0000
  O2     O2        0.339780539669478    0.782379760720668    0.138440116395178  0.0000
  O2     O2        0.843656877505436    0.258806167199502    0.893454276456374  0.0000
  O3     O3        0.652253878301108    0.778498908455152    0.889554380215077  0.0000
  O2     O2        0.858653225196990    0.730803641109094    0.888169179331220  0.0000
  O2     O2        0.642579567826275    0.272637754945541    0.885093575018259  0.0000
  O2     O2        0.138816675519414    0.736387275790512    0.148485185848383  0.0000
  O2     O2        0.369277725607884    0.292682388919861    0.139039861406381  0.0000
  O2     O2        0.633599828889106    0.525684726566888    0.060865097675672  0.0000
  O2     O2        0.863649598265694    0.497221436656749    0.078917350548878  0.0000
  O2     O2        0.365416864280380    0.543616008432191    0.958612820685138  0.0000
  O2     O2        0.134140105346223    0.471228985709231    0.977381605509248  0.0000
  O2     O2        0.741245084848127    0.284689201746746    0.083408149729046  0.0000
  O2     O2        0.755698182257976    0.737591129166083    0.076249283356652  0.0000
  O2     O2        0.262898118857431    0.286993267077792    0.957250562637064  0.0000
  O2     O2        0.236054186886104    0.727512901540095    0.950576549362307  0.0000
