data_c00318.vasp
_audit_creation_method             Generated by GULP
_audit_author_name                 Salvador R. G. Balestra
_symmetry_space_group_name_H-M     'P 1             '
_symmetry_Int_Tables_number        1

loop_
_symmetry_equiv_pos_site_id
_symmetry_equiv_pos_as_xyz
_cell_length_a                       17.1905
_cell_length_b                        7.6071
_cell_length_c                       10.3007
_cell_angle_alpha                   90.3503
_cell_angle_beta                    90.3371
_cell_angle_gamma                   90.9422

loop_
_atom_site_label
_atom_site_type_symbol
_atom_site_fract_x
_atom_site_fract_y
_atom_site_fract_z
_atom_site_charge
  Ge     Ge        0.052090000000021    0.000000000000000    0.372269999999958  0.0000
  Ge     Ge        0.939310576362134    0.013424646397067    0.111743392803769  0.0000
  Ge     Ge        0.848949350782043    0.318737894372714    0.729545402923485  0.0000
  Ge     Ge        0.647175069314093    0.678810115868931    0.716870115611563  0.0000
  Si     Si        0.452520881552593    0.003905649014315    0.369280737064733  0.0000
  Si     Si        0.951687818771406    0.013309801906002    0.631439221755721  0.0000
  Si     Si        0.544147240857334    0.986048337877347    0.633475345904980  0.0000
  Si     Si        0.553696263759130    0.991401213324875    0.118262237030213  0.0000
  Si     Si        0.438102519644388    0.000351002506857    0.881950418268584  0.0000
  Si     Si        0.053115516348714    0.994281125062987    0.876326278966403  0.0000
  Si     Si        0.158290135894688    0.310256461914254    0.293060055765646  0.0000
  Si     Si        0.349556008311088    0.693028678994370    0.280230955218785  0.0000
  Si     Si        0.828603057847247    0.730363907895935    0.729274460365954  0.0000
  Si     Si        0.667413302054356    0.270826827350121    0.719605646193031  0.0000
  Si     Si        0.169894699273752    0.716809651917493    0.290524096507005  0.0000
  Si     Si        0.337684187883384    0.289434950295556    0.280620845354423  0.0000
  Si     Si        0.667191352022960    0.280352359079324    0.026332049342608  0.0000
  Si     Si        0.819589277675729    0.727669736836091    0.033097778881615  0.0000
  Si     Si        0.329807007278353    0.287270047989610    0.977715924948361  0.0000
  Si     Si        0.162134781422265    0.710633076419853    0.989651818013348  0.0000
  Si     Si        0.342324042718932    0.687521937326594    0.978332413501130  0.0000
  Si     Si        0.150154014723306    0.306426349415462    0.991823425288460  0.0000
  Si     Si        0.642117488632797    0.673661265104099    0.026322963967331  0.0000
  Si     Si        0.845244459198902    0.332109431660064    0.037134188971052  0.0000
  O3     O3        0.101347199454640    0.200481389553030    0.382957150771037  0.0000
  O2     O2        0.408569446642287    0.814791702487490    0.363018080835300  0.0000
  O3     O3        0.918050836585985    0.207577561712834    0.643176688953052  0.0000
  O3     O3        0.578802130314760    0.793114171941965    0.630284266714375  0.0000
  O2     O2        0.880955450898069    0.878438448895197    0.660864836548394  0.0000
  O2     O2        0.617947044460825    0.117976959306988    0.648638430846044  0.0000
  O3     O3        0.122258447307012    0.839479092174353    0.383835479149127  0.0000
  O2     O2        0.389683926171252    0.157980185912217    0.362451093174618  0.0000
  O3     O3        0.981708458487054    0.980264293660570    0.487846280190007  0.0000
  O2     O2        0.498135177020441    0.025840158603331    0.502750523505276  0.0000
  O1     O1        0.005711124101476    0.972100708599884    0.227326197225139  0.0000
  O2     O2        0.514538345800345    0.022900652141262    0.255498501123619  0.0000
  O2     O2        0.026294339054152    0.989286835503817    0.726381172583919  0.0000
  O2     O2        0.483810904042340    0.015035902405947    0.749298377772083  0.0000
  O2     O2        0.625669848562193    0.128177332524272    0.107975965232151  0.0000
  O3     O3        0.860267881290544    0.869946068560662    0.123186558008177  0.0000
  O2     O2        0.373405894920014    0.151509016655586    0.885521735734055  0.0000
  O2     O2        0.115126585400620    0.840616439285844    0.898266233435909  0.0000
  O2     O2        0.396185168425298    0.808991375845336    0.888331171092983  0.0000
  O2     O2        0.090813225791485    0.186206696437125    0.909121436378682  0.0000
  O2     O2        0.583318585395553    0.791063176993624    0.110715409162838  0.0000
  O3     O3        0.903774006987699    0.224771786350539    0.126262251526025  0.0000
  O2     O2        0.494839710789382    0.034142297380370    0.002726863098812  0.0000
  O3     O3        0.978257387004955    0.963597332802847    0.962200885900974  0.0000
  O2     O2        0.144626677602595    0.515643093176561    0.316343494485183  0.0000
  O2     O2        0.365459833531576    0.489356859741606    0.310692375112761  0.0000
  O3     O3        0.865801042948241    0.541199885427860    0.708662086522803  0.0000
  O3     O3        0.630849190822174    0.457849568735727    0.689292377941888  0.0000
  O2     O2        0.248007354915184    0.263467064774072    0.321557543930545  0.0000
  O2     O2        0.261771028982217    0.741034824508627    0.317483424910570  0.0000
  O3     O3        0.756143388569340    0.267844994088122    0.673772920240527  0.0000
  O3     O3        0.741520122689982    0.729983288855674    0.672211772343918  0.0000
  O2     O2        0.137696172661786    0.259395581946079    0.142992694464826  0.0000
  O2     O2        0.363036606957615    0.730908625381426    0.128046009505618  0.0000
  O3     O3        0.859182745802354    0.264993580584804    0.890816074716969  0.0000
  O3     O3        0.631386474399675    0.728638087515995    0.878138396965693  0.0000
  O2     O2        0.821947722791214    0.778497566215145    0.881587689345073  0.0000
  O2     O2        0.667619019667581    0.235386781625945    0.874142887545104  0.0000
  O2     O2        0.151622228532182    0.765347412598193    0.140053420527240  0.0000
  O2     O2        0.346262444198845    0.245624467862485    0.128288588856631  0.0000
  O2     O2        0.623490258468312    0.466176642821874    0.047012409248937  0.0000
  O2     O2        0.862198911276050    0.540196034846341    0.050286664961114  0.0000
  O2     O2        0.359398236539524    0.484621272727688    0.945387262988625  0.0000
  O2     O2        0.131152701639336    0.510745258833409    0.967119159601367  0.0000
  O2     O2        0.755723390671418    0.292986246116725    0.076804457785665  0.0000
  O2     O2        0.729928097496398    0.710502529078465    0.074937121071009  0.0000
  O2     O2        0.238005541041772    0.267943569238765    0.949216877473644  0.0000
  O2     O2        0.252252374784788    0.726590554775654    0.950866174459112  0.0000
