data_c00384.vasp
_audit_creation_method             Generated by GULP
_audit_author_name                 Salvador R. G. Balestra
_symmetry_space_group_name_H-M     'P 1             '
_symmetry_Int_Tables_number        1

loop_
_symmetry_equiv_pos_site_id
_symmetry_equiv_pos_as_xyz
_cell_length_a                       17.0477
_cell_length_b                        7.6014
_cell_length_c                       10.3109
_cell_angle_alpha                   88.5101
_cell_angle_beta                    89.6871
_cell_angle_gamma                   90.8607

loop_
_atom_site_label
_atom_site_type_symbol
_atom_site_fract_x
_atom_site_fract_y
_atom_site_fract_z
_atom_site_charge
  Ge     Ge        0.052090000000021    0.000000000000000    0.372269999999958  0.0000
  Ge     Ge        0.444816356137445    0.058956046220599    0.849868983125063  0.0000
  Ge     Ge        0.335892495660661    0.753757034023283    0.279183133684024  0.0000
  Ge     Ge        0.355262877490629    0.382428789788323    0.955933951511054  0.0000
  Si     Si        0.457572428873610    0.033372967904990    0.353827251206958  0.0000
  Si     Si        0.955947812155775    0.033052747359482    0.637853815196607  0.0000
  Si     Si        0.556546617024723    0.034722927927349    0.606341640006681  0.0000
  Si     Si        0.554188020070838    0.013441405932906    0.095982457697309  0.0000
  Si     Si        0.941705673475599    0.020637867821066    0.126886601725126  0.0000
  Si     Si        0.057363644638739    0.031855565858214    0.893652528146374  0.0000
  Si     Si        0.177868984625247    0.290424957749002    0.266257251193188  0.0000
  Si     Si        0.839847549820506    0.317381542716318    0.714883146941624  0.0000
  Si     Si        0.669334480238631    0.743784147920606    0.709757347182488  0.0000
  Si     Si        0.849746681868623    0.721673688633537    0.712996212550394  0.0000
  Si     Si        0.658737656543094    0.338882849991279    0.710095923148023  0.0000
  Si     Si        0.152101503659746    0.689972842471397    0.285880381745560  0.0000
  Si     Si        0.357659547142748    0.342410944537294    0.261942175174077  0.0000
  Si     Si        0.652416298362713    0.333690800428560    0.011829132627971  0.0000
  Si     Si        0.848135038082509    0.708877908513312    0.016207742687339  0.0000
  Si     Si        0.149553431875289    0.712082491216677    0.984484265719872  0.0000
  Si     Si        0.330647620451393    0.785024884853605    0.974545305413711  0.0000
  Si     Si        0.172922952833919    0.322372017784262    0.962541214884099  0.0000
  Si     Si        0.667264925742136    0.733304165506263    0.012830526253641  0.0000
  Si     Si        0.833993978952307    0.309097333628608    0.017485100815883  0.0000
  O3     O3        0.131094272222902    0.138975191288379    0.341937805225426  0.0000
  O3     O3        0.390525692985132    0.886377060555992    0.378797993106686  0.0000
  O2     O2        0.892304354608261    0.189280492047931    0.630706903166082  0.0000
  O2     O2        0.617595531586143    0.876394890013012    0.624996080706864  0.0000
  O2     O2        0.909240557396585    0.846030850438143    0.630148882390374  0.0000
  O2     O2        0.600658229784021    0.221320291934205    0.626371508743052  0.0000
  O3     O3        0.088278483186886    0.788821293946879    0.369747471451851  0.0000
  O2     O2        0.417350802130502    0.224009371939898    0.346229243665529  0.0000
  O3     O3        0.017698040955333    0.049428001566525    0.523808497340204  0.0000
  O2     O2        0.524621343624140    0.032655994338967    0.461211520511050  0.0000
  O3     O3        0.973273297324598    0.027105779314781    0.270585939565758  0.0000
  O2     O2        0.499101717085012    0.985031671085976    0.219378935951050  0.0000
  O2     O2        0.001099112356672    0.047066356339066    0.772599347370475  0.0000
  O3     O3        0.482461213325829    0.013260387141293    0.700337523065410  0.0000
  O2     O2        0.592967722208382    0.210091142976047    0.095098080880841  0.0000
  O2     O2        0.905206988987496    0.827237653693026    0.101335914166046  0.0000
  O1     O1        0.420501555775775    0.275099171732677    0.860522685975797  0.0000
  O2     O2        0.094676765099673    0.837996104014802    0.898371422459696  0.0000
  O3     O3        0.358683179091067    0.938318349296739    0.877217996280336  0.0000
  O2     O2        0.125103062597348    0.181107114740823    0.879527691335892  0.0000
  O2     O2        0.622186730431719    0.867508117829317    0.101964334317781  0.0000
  O2     O2        0.875426641230016    0.167835754180210    0.109700337837329  0.0000
  O3     O3        0.507514604071253    0.979894321489245    0.966500306730677  0.0000
  O2     O2        0.011826273225856    0.066586252791489    0.026917548645151  0.0000
  O2     O2        0.140598852312555    0.479163009990108    0.298282347735921  0.0000
  O3     O3        0.374695869950501    0.545486068168736    0.284904148967435  0.0000
  O2     O2        0.866513210099201    0.518637839769477    0.683220250966309  0.0000
  O2     O2        0.642871910233332    0.544112034356608    0.679740071242888  0.0000
  O2     O2        0.268738981764886    0.292811429182427    0.308817565237776  0.0000
  O3     O3        0.239231034339276    0.743225456072848    0.329440905742249  0.0000
  O2     O2        0.748545366640088    0.292741024289771    0.678031568176466  0.0000
  O2     O2        0.760927328917351    0.769609937407012    0.673733401827423  0.0000
  O2     O2        0.175933935168423    0.257472053062015    0.112653922241562  0.0000
  O3     O3        0.339964371757832    0.840043878174279    0.122879344972960  0.0000
  O2     O2        0.849761542115822    0.269352528568910    0.866998914100950  0.0000
  O2     O2        0.657011613416032    0.783462076420190    0.860980693885893  0.0000
  O2     O2        0.862867059859064    0.755888905514884    0.864908456930553  0.0000
  O2     O2        0.638459813412260    0.293406791922783    0.860487347296000  0.0000
  O2     O2        0.137704514269450    0.753316890517288    0.136071230312022  0.0000
  O3     O3        0.368100100842880    0.298597478511421    0.111847129909068  0.0000
  O2     O2        0.633325930387618    0.535897800709199    0.039950252008928  0.0000
  O2     O2        0.866482447194076    0.504558860365716    0.047317600688060  0.0000
  O3     O3        0.376461020312957    0.604315182404715    0.950658602354150  0.0000
  O2     O2        0.128106359553477    0.509728446984737    0.954128920046335  0.0000
  O2     O2        0.741734057225767    0.294143312671938    0.048578913596587  0.0000
  O2     O2        0.758131617641924    0.745279350952480    0.051663770359594  0.0000
  O3     O3        0.259858065709274    0.340409905446721    0.906648189468500  0.0000
  O2     O2        0.239701677887337    0.741809003742022    0.946191330046996  0.0000
