data_c00315.vasp
_audit_creation_method             Generated by GULP
_audit_author_name                 Salvador R. G. Balestra
_symmetry_space_group_name_H-M     'P 1             '
_symmetry_Int_Tables_number        1

loop_
_symmetry_equiv_pos_site_id
_symmetry_equiv_pos_as_xyz
_cell_length_a                       17.1563
_cell_length_b                        7.6334
_cell_length_c                       10.2812
_cell_angle_alpha                   89.0929
_cell_angle_beta                    89.3511
_cell_angle_gamma                   90.0890

loop_
_atom_site_label
_atom_site_type_symbol
_atom_site_fract_x
_atom_site_fract_y
_atom_site_fract_z
_atom_site_charge
  Ge     Ge        0.052090000000021    0.000000000000000    0.372269999999958  0.0000
  Ge     Ge        0.942377345951921    0.010629418087021    0.118207443086350  0.0000
  Ge     Ge        0.338634279874337    0.735933586961174    0.269382537510394  0.0000
  Ge     Ge        0.170663201460330    0.305485980244272    0.957196436731315  0.0000
  Si     Si        0.456084955222281    0.020537982635463    0.350454289447969  0.0000
  Si     Si        0.950441679966521    0.012614988903646    0.633304392531820  0.0000
  Si     Si        0.553086974416870    0.029397818201979    0.608429930522481  0.0000
  Si     Si        0.555481385350906    0.014715233232596    0.092335747941477  0.0000
  Si     Si        0.444510388887273    0.031098083588875    0.854694384601708  0.0000
  Si     Si        0.057035368845413    0.022458897341327    0.878893397573990  0.0000
  Si     Si        0.173341762684061    0.286136536469070    0.263797930033453  0.0000
  Si     Si        0.835396504415554    0.302848612823507    0.705653132384610  0.0000
  Si     Si        0.666148487366621    0.733752627918313    0.701884401102506  0.0000
  Si     Si        0.844810943906625    0.706100491934718    0.702383902159136  0.0000
  Si     Si        0.655247681045078    0.332294455529527    0.702319028538405  0.0000
  Si     Si        0.155775589210783    0.694766523491966    0.271158295665943  0.0000
  Si     Si        0.352321075562823    0.327255946839500    0.260564665122366  0.0000
  Si     Si        0.649060470332434    0.333924372660858    0.005163797223723  0.0000
  Si     Si        0.846830667326484    0.695853069474863    0.006319028682966  0.0000
  Si     Si        0.352861419060891    0.346485979929807    0.954693422066806  0.0000
  Si     Si        0.154071862916140    0.709321574483777    0.970112097880375  0.0000
  Si     Si        0.335836264751008    0.744771178844838    0.960497615698635  0.0000
  Si     Si        0.667645075636956    0.729301487792151    0.006832979222683  0.0000
  Si     Si        0.829245925922772    0.297550413233844    0.008031293179576  0.0000
  O3     O3        0.123367116559494    0.158408715719813    0.354276345523573  0.0000
  O3     O3        0.392446229696414    0.868868478081605    0.367143024982031  0.0000
  O2     O2        0.888341627873122    0.172358886794159    0.621337607782519  0.0000
  O2     O2        0.613281215951045    0.868659398447045    0.621928013652473  0.0000
  O2     O2        0.903598237702341    0.829001852332325    0.618919075754067  0.0000
  O2     O2        0.599262304947165    0.212449501865723    0.617811561075905  0.0000
  O3     O3        0.092825688582041    0.793867424318399    0.357162945266942  0.0000
  O2     O2        0.411594480119019    0.205252603050709    0.339438819350579  0.0000
  O3     O3        0.017881642578621    0.026446427597679    0.528816271485265  0.0000
  O2     O2        0.515700500018784    0.023045771567427    0.467792024350843  0.0000
  O1     O1        0.973577963025808    0.022422058210487    0.273971441019505  0.0000
  O2     O2        0.504436666877620    0.982071155184572    0.219724688090928  0.0000
  O2     O2        0.990051709426015    0.019878719550951    0.773754209388492  0.0000
  O2     O2        0.483770870767591    0.016003896054362    0.713925755227137  0.0000
  O2     O2        0.591276632569713    0.211035973889965    0.090383633281313  0.0000
  O3     O3        0.907536147601865    0.802437248002895    0.088154299431863  0.0000
  O2     O2        0.413041316173175    0.228873506839726    0.872507948883495  0.0000
  O2     O2        0.099408335752033    0.833463570609128    0.883678479232876  0.0000
  O2     O2        0.374423390964415    0.889601326440105    0.864135515257543  0.0000
  O3     O3        0.121412504041803    0.171158416590097    0.853534284910312  0.0000
  O2     O2        0.624126169749067    0.871414903411706    0.093475943470776  0.0000
  O3     O3        0.867665506539371    0.159296947386779    0.101971570056446  0.0000
  O2     O2        0.505518183466245    0.980052578851093    0.965105423527903  0.0000
  O3     O3        0.018832365884924    0.067507643242726    0.017622509837239  0.0000
  O2     O2        0.143395161798317    0.485735588068388    0.277912736778179  0.0000
  O3     O3        0.372068307289756    0.525019534756589    0.290827669478211  0.0000
  O2     O2        0.862942600695982    0.502318795662640    0.675534822454674  0.0000
  O2     O2        0.638677152181185    0.536331762100716    0.670910794941229  0.0000
  O2     O2        0.264034357619094    0.279023003169426    0.304557480871872  0.0000
  O3     O3        0.241921938580557    0.744732151113892    0.315791727938876  0.0000
  O2     O2        0.744739944406479    0.284580236322129    0.668435624884072  0.0000
  O2     O2        0.756767823370034    0.753482325055216    0.660372727390472  0.0000
  O3     O3        0.165225864006789    0.227811677368630    0.115531647155750  0.0000
  O3     O3        0.347218241331675    0.800583069851931    0.108191753007955  0.0000
  O2     O2        0.844942649850239    0.250987450142914    0.857155870990260  0.0000
  O2     O2        0.658227277143458    0.774092974702539    0.854366689775898  0.0000
  O2     O2        0.856841814554285    0.745889197341852    0.854005982049181  0.0000
  O2     O2        0.636173067164249    0.292522281635499    0.853646239023135  0.0000
  O2     O2        0.143432646641235    0.760298283315653    0.121593237044017  0.0000
  O2     O2        0.359693826100063    0.292354621186358    0.106307941122556  0.0000
  O2     O2        0.631081260241002    0.536590058367838    0.035715888007259  0.0000
  O2     O2        0.863920819071226    0.490856854613041    0.031607463963218  0.0000
  O2     O2        0.373589385634265    0.552835239566507    0.936520707829714  0.0000
  O3     O3        0.129822367104331    0.511635623725278    0.947130004678633  0.0000
  O2     O2        0.737623484427297    0.293004518396790    0.040670913695883  0.0000
  O2     O2        0.757689537067771    0.736760859971058    0.047527975593778  0.0000
  O3     O3        0.266487911752051    0.312105595283174    0.906203555881683  0.0000
  O2     O2        0.244297353463322    0.735664227598155    0.928852529251277  0.0000
