data_c00352.vasp
_audit_creation_method             Generated by GULP
_audit_author_name                 Salvador R. G. Balestra
_symmetry_space_group_name_H-M     'P 1             '
_symmetry_Int_Tables_number        1

loop_
_symmetry_equiv_pos_site_id
_symmetry_equiv_pos_as_xyz
_cell_length_a                       17.1037
_cell_length_b                        7.6158
_cell_length_c                       10.3161
_cell_angle_alpha                   89.0750
_cell_angle_beta                    89.5934
_cell_angle_gamma                   90.2568

loop_
_atom_site_label
_atom_site_type_symbol
_atom_site_fract_x
_atom_site_fract_y
_atom_site_fract_z
_atom_site_charge
  Ge     Ge        0.052090000000021    0.000000000000000    0.372269999999958  0.0000
  Ge     Ge        0.941235881356091    0.007349087780512    0.117394197539654  0.0000
  Ge     Ge        0.353935932701620    0.357558365889145    0.948229850488449  0.0000
  Ge     Ge        0.166755453563088    0.319735353032006    0.952967531680394  0.0000
  Si     Si        0.452849323949258    0.017247281058719    0.352246311974746  0.0000
  Si     Si        0.948511928002950    0.005671163442343    0.631169507101012  0.0000
  Si     Si        0.549356176029162    0.015991512972212    0.613234925610687  0.0000
  Si     Si        0.555514164871076    0.014630157210620    0.099689696102832  0.0000
  Si     Si        0.444742204113348    0.035790742098765    0.861102909518972  0.0000
  Si     Si        0.054275649057175    0.031723970035332    0.877600918590594  0.0000
  Si     Si        0.171894046239177    0.290695829133370    0.259087959003990  0.0000
  Si     Si        0.338293058403017    0.730475421238186    0.269065985549534  0.0000
  Si     Si        0.832444775303119    0.292744876760349    0.706281924062347  0.0000
  Si     Si        0.664626531620133    0.726314200411930    0.699387793404153  0.0000
  Si     Si        0.843836444469936    0.696666708164085    0.699304681727050  0.0000
  Si     Si        0.651458821806945    0.323345167665263    0.704042227895368  0.0000
  Si     Si        0.157786081101826    0.699413411207899    0.274017879139182  0.0000
  Si     Si        0.351086591809384    0.326167970518984    0.258362369387019  0.0000
  Si     Si        0.647468745016941    0.332997107672293    0.004923146440680  0.0000
  Si     Si        0.846485524575727    0.691824832698146    0.002093127342935  0.0000
  Si     Si        0.151470432638035    0.720177640323814    0.977585412913448  0.0000
  Si     Si        0.334850732849886    0.756042814572985    0.967944614735244  0.0000
  Si     Si        0.666705804522084    0.729798967274827    0.002939677987258  0.0000
  Si     Si        0.828225127516297    0.293084258520798    0.007629158477152  0.0000
  O3     O3        0.119280301540292    0.166384496051106    0.348248235952840  0.0000
  O2     O2        0.388990839518991    0.859983982750593    0.356930689408680  0.0000
  O2     O2        0.884026018108806    0.161135408457062    0.621291381918362  0.0000
  O2     O2        0.612842106008826    0.860077730999268    0.615567331348419  0.0000
  O2     O2        0.903358641266613    0.818801461573936    0.615906799090721  0.0000
  O2     O2        0.593940171049739    0.202757439453382    0.621507704393117  0.0000
  O3     O3        0.099975149656153    0.799664856123584    0.367526101490783  0.0000
  O2     O2        0.410014280960249    0.204738105369112    0.340743475600770  0.0000
  O3     O3        0.015454686043622    0.027242492833772    0.526654019615300  0.0000
  O2     O2        0.502250032232430    0.011246843162625    0.481763961828469  0.0000
  O1     O1        0.973307719692784    0.007973589974656    0.272669239147150  0.0000
  O2     O2        0.512688491024431    0.986627546918273    0.235222316806105  0.0000
  O2     O2        0.988300331508340    0.013135734108747    0.771331718167003  0.0000
  O2     O2        0.487346185491821    0.986452115990035    0.728732407080435  0.0000
  O2     O2        0.590140948474453    0.212671290651553    0.092591124176980  0.0000
  O3     O3        0.907937275897555    0.798745378083038    0.082846627470112  0.0000
  O3     O3        0.420529533370946    0.237539058792457    0.859954522173779  0.0000
  O2     O2        0.102405090928786    0.849990293381397    0.887079832334516  0.0000
  O2     O2        0.365387565647589    0.919360067854520    0.880369026681760  0.0000
  O3     O3        0.114085042477686    0.189217772040712    0.849904806851605  0.0000
  O2     O2        0.624527418213739    0.872550215512962    0.090417849538590  0.0000
  O3     O3        0.865614928563172    0.155374964158117    0.103614062871159  0.0000
  O2     O2        0.498037775820278    0.980264733233466    0.981796063374828  0.0000
  O3     O3        0.015234837544679    0.074440173398423    0.015486119918279  0.0000
  O2     O2        0.142799599503439    0.491255369996780    0.275745746089799  0.0000
  O2     O2        0.368704360496527    0.531128638957108    0.286195322268492  0.0000
  O2     O2        0.860807121353332    0.491775708731490    0.673938198956740  0.0000
  O2     O2        0.635953571006531    0.527990123460036    0.671988485719140  0.0000
  O2     O2        0.262507584735164    0.279054010551395    0.301609794387093  0.0000
  O2     O2        0.247547354876030    0.741086620779457    0.311562201143329  0.0000
  O2     O2        0.741055562879654    0.274082726964996    0.671209186721273  0.0000
  O2     O2        0.755417750249394    0.743759762454837    0.657752141237326  0.0000
  O3     O3        0.165910295458833    0.236554197758663    0.110343848077128  0.0000
  O2     O2        0.346776109480234    0.794338840896359    0.120055017333145  0.0000
  O2     O2        0.843600225551601    0.243346612817015    0.857636314119203  0.0000
  O2     O2        0.656542380529753    0.773393210106465    0.850614664691548  0.0000
  O2     O2        0.856282120909651    0.738526682296820    0.849943782428762  0.0000
  O2     O2        0.632345181216166    0.285996386960950    0.855179610727718  0.0000
  O2     O2        0.139319392753130    0.773794570992998    0.128295669929889  0.0000
  O3     O3        0.362327494600314    0.288301001211743    0.107935651142013  0.0000
  O2     O2        0.629606276192372    0.536910899076327    0.032036511371622  0.0000
  O2     O2        0.863526153207798    0.486872329258275    0.029541710468792  0.0000
  O3     O3        0.378074202028708    0.577588220736755    0.932271669376049  0.0000
  O3     O3        0.123588120070637    0.524515447235481    0.953591253198445  0.0000
  O2     O2        0.736358817117056    0.292246406392803    0.039132035514578  0.0000
  O2     O2        0.757355132685099    0.735599524564406    0.042470945006276  0.0000
  O1     O1        0.260661190975537    0.325373006954311    0.896746361932968  0.0000
  O2     O2        0.243162202849740    0.728672225516877    0.940648863647655  0.0000
