data_c00313.vasp
_audit_creation_method             Generated by GULP
_audit_author_name                 Salvador R. G. Balestra
_symmetry_space_group_name_H-M     'P 1             '
_symmetry_Int_Tables_number        1

loop_
_symmetry_equiv_pos_site_id
_symmetry_equiv_pos_as_xyz
_cell_length_a                       17.1373
_cell_length_b                        7.6191
_cell_length_c                       10.3304
_cell_angle_alpha                   89.6594
_cell_angle_beta                    89.7702
_cell_angle_gamma                   89.7110

loop_
_atom_site_label
_atom_site_type_symbol
_atom_site_fract_x
_atom_site_fract_y
_atom_site_fract_z
_atom_site_charge
  Ge     Ge        0.052090000000021    0.000000000000000    0.372269999999958  0.0000
  Ge     Ge        0.943118563503687    0.998981306364837    0.116598205942546  0.0000
  Ge     Ge        0.354489293095918    0.668642723300875    0.269110324312635  0.0000
  Ge     Ge        0.169971572908788    0.710657614907382    0.962701135307313  0.0000
  Si     Si        0.457144872583719    0.978507205534392    0.352783385431893  0.0000
  Si     Si        0.949494101267114    0.007475923405731    0.631870671152489  0.0000
  Si     Si        0.550537732244570    0.997117846959905    0.614005017912047  0.0000
  Si     Si        0.557274737271252    0.993630861064728    0.097738552026625  0.0000
  Si     Si        0.443780207510634    0.988399501955630    0.862708111905242  0.0000
  Si     Si        0.056326974963560    0.994874365323104    0.877912568258767  0.0000
  Si     Si        0.158121197973030    0.302529946753776    0.265995120526761  0.0000
  Si     Si        0.844777046603901    0.314256177607842    0.701270971972617  0.0000
  Si     Si        0.653313403795201    0.688562317998950    0.700973950270868  0.0000
  Si     Si        0.833560405518629    0.718175565748391    0.703981539855741  0.0000
  Si     Si        0.665761152902979    0.286178833654040    0.701523203420164  0.0000
  Si     Si        0.173179728751954    0.713123087469192    0.268872562856671  0.0000
  Si     Si        0.337953437340680    0.259704701659149    0.262608635098288  0.0000
  Si     Si        0.668345144769473    0.280940823948127    0.004611637814548  0.0000
  Si     Si        0.829493596772706    0.715941309209152    0.004980257648451  0.0000
  Si     Si        0.333709791391957    0.273521403677472    0.960306352779030  0.0000
  Si     Si        0.352366706415717    0.670660335936341    0.957985180325403  0.0000
  Si     Si        0.151851655358337    0.305939312344865    0.969051140332682  0.0000
  Si     Si        0.649398784737832    0.677393976222347    0.002250182692105  0.0000
  Si     Si        0.847797875841088    0.317067601504619    0.003419571316099  0.0000
  O3     O3        0.099447516990440    0.199249344906432    0.356578903502637  0.0000
  O3     O3        0.423683338701480    0.783633344917938    0.353351749665220  0.0000
  O2     O2        0.903564194420275    0.193696922740284    0.617995772571204  0.0000
  O2     O2        0.595770233968955    0.810599654564455    0.617380309149105  0.0000
  O2     O2        0.885995665097479    0.850935394758300    0.619929414748397  0.0000
  O2     O2        0.613399923571999    0.153061300303408    0.621036485625965  0.0000
  O3     O3        0.117211045371412    0.828881034557246    0.357095342462684  0.0000
  O2     O2        0.382816009068994    0.109170361532257    0.342062318446266  0.0000
  O3     O3        0.016375394720219    0.990001308000762    0.528118716225721  0.0000
  O2     O2        0.504892444581904    0.017291635484110    0.481172187285146  0.0000
  O1     O1        0.973674483556575    0.986291585036453    0.272402321534996  0.0000
  O2     O2        0.514919107534628    0.013186477067555    0.233435759440749  0.0000
  O2     O2        0.989717636496956    0.994997194674879    0.771753227326101  0.0000
  O2     O2        0.487410507296403    0.011670281936729    0.727665141957002  0.0000
  O2     O2        0.626003323635538    0.136404050190659    0.092089590172124  0.0000
  O3     O3        0.868163248777633    0.851482159047335    0.098675631043673  0.0000
  O2     O2        0.372618723290162    0.128553475040154    0.867916990771645  0.0000
  O3     O3        0.122355991329535    0.849067742161031    0.857177833057312  0.0000
  O2     O2        0.411940682484387    0.789906747456520    0.874163043879491  0.0000
  O2     O2        0.096685443377667    0.186538397171645    0.881163228287002  0.0000
  O2     O2        0.591672101210038    0.796321464065730    0.087461713096913  0.0000
  O3     O3        0.908919797099187    0.209006153156076    0.085691546916230  0.0000
  O2     O2        0.499811840618255    0.036387562899745    0.980462072845531  0.0000
  O3     O3        0.018938467213822    0.943802934185124    0.016101969922836  0.0000
  O2     O2        0.145115996612937    0.510623132674659    0.273748370934359  0.0000
  O3     O3        0.372709361429367    0.448371580281919    0.293628417647355  0.0000
  O2     O2        0.861754272098708    0.519414271322658    0.674322594125176  0.0000
  O2     O2        0.637405431940653    0.484636927482312    0.670757719995936  0.0000
  O2     O2        0.247059831186006    0.254846719107477    0.304061237050277  0.0000
  O3     O3        0.261239150658546    0.721351243919964    0.319449701002869  0.0000
  O2     O2        0.756349576427401    0.267853603049040    0.660641882358556  0.0000
  O2     O2        0.742616132147540    0.737434170211873    0.666470753039083  0.0000
  O2     O2        0.141001908997484    0.242193675524758    0.118263798332446  0.0000
  O3     O3        0.361834648847511    0.721655340856412    0.107114298979540  0.0000
  O2     O2        0.857915003163596    0.270414021865492    0.852114529778281  0.0000
  O2     O2        0.635496428144341    0.724466016595778    0.851740254984906  0.0000
  O2     O2        0.843611396007424    0.766624406099220    0.854594969105259  0.0000
  O2     O2        0.657776546010445    0.239564160328535    0.853076051195267  0.0000
  O3     O3        0.168477940454929    0.780738797479991    0.121344717953436  0.0000
  O2     O2        0.344665424587541    0.218911857215927    0.109830379212676  0.0000
  O2     O2        0.631720308631348    0.473452026893871    0.032410753795654  0.0000
  O2     O2        0.864700642630029    0.521685737191947    0.028195091665386  0.0000
  O2     O2        0.372625381769083    0.464174641604118    0.936938256950089  0.0000
  O3     O3        0.127619398101066    0.505824975563551    0.951713493911999  0.0000
  O2     O2        0.758854697624304    0.273662581469130    0.043965849181352  0.0000
  O2     O2        0.737975415935187    0.718245364559249    0.038010222858259  0.0000
  O2     O2        0.242208767004789    0.282927118027421    0.926961245936331  0.0000
  O3     O3        0.265260235851479    0.704313637892813    0.910682492562400  0.0000
