data_c00328.vasp
_audit_creation_method             Generated by GULP
_audit_author_name                 Salvador R. G. Balestra
_symmetry_space_group_name_H-M     'P 1             '
_symmetry_Int_Tables_number        1

loop_
_symmetry_equiv_pos_site_id
_symmetry_equiv_pos_as_xyz
_cell_length_a                       17.1411
_cell_length_b                        7.5925
_cell_length_c                       10.3021
_cell_angle_alpha                   89.9934
_cell_angle_beta                    90.5769
_cell_angle_gamma                   90.8005

loop_
_atom_site_label
_atom_site_type_symbol
_atom_site_fract_x
_atom_site_fract_y
_atom_site_fract_z
_atom_site_charge
  Ge     Ge        0.052090000000021    0.000000000000000    0.372269999999958  0.0000
  Ge     Ge        0.940768643753110    0.021696675569816    0.114491746506026  0.0000
  Ge     Ge        0.844801404522516    0.333689987374748    0.718109456035423  0.0000
  Ge     Ge        0.846849298108161    0.349659789226022    0.034963922390663  0.0000
  Si     Si        0.452241298405880    0.002363867555613    0.359506478407906  0.0000
  Si     Si        0.947096948373092    0.026774012660104    0.625871740322915  0.0000
  Si     Si        0.542854081097909    0.001673768517214    0.627421048248239  0.0000
  Si     Si        0.549752136106172    0.001098705985070    0.104055560670239  0.0000
  Si     Si        0.432979855078204    0.002302683082105    0.868738228768009  0.0000
  Si     Si        0.049065606191291    0.000599657607430    0.873781045558282  0.0000
  Si     Si        0.155690179968561    0.313853787755079    0.288306294751273  0.0000
  Si     Si        0.350163526251647    0.690319808783177    0.272760260320924  0.0000
  Si     Si        0.646258812439989    0.697096006140719    0.715977869576705  0.0000
  Si     Si        0.824509896506480    0.746940763225989    0.725599662080803  0.0000
  Si     Si        0.664586116622341    0.295060434597218    0.713749133546316  0.0000
  Si     Si        0.170188230727081    0.720787040581533    0.286003257590283  0.0000
  Si     Si        0.335703539059657    0.286177673262922    0.274037752012423  0.0000
  Si     Si        0.666181151744522    0.292801089241330    0.021226400038713  0.0000
  Si     Si        0.818247201104137    0.749235276127166    0.030394990471635  0.0000
  Si     Si        0.325624877656751    0.286646809862773    0.971504175860005  0.0000
  Si     Si        0.159940705749480    0.717661181251472    0.985283545343276  0.0000
  Si     Si        0.340493953664309    0.687126237877593    0.971364202794073  0.0000
  Si     Si        0.145376309488430    0.313343245709783    0.987932705282030  0.0000
  Si     Si        0.640097835550226    0.683184824663994    0.018262800692786  0.0000
  O3     O3        0.098507692613444    0.204308033924140    0.378456559641831  0.0000
  O2     O2        0.410483488913303    0.810430729452542    0.354597454413257  0.0000
  O3     O3        0.914299237532634    0.222664256229884    0.630575657037130  0.0000
  O2     O2        0.585489996873471    0.814008652748056    0.634976789220351  0.0000
  O2     O2        0.873183124153271    0.898345379227625    0.652970171397123  0.0000
  O2     O2        0.606167035976516    0.157166527972908    0.645900339270256  0.0000
  O3     O3        0.124955900968948    0.844229138473760    0.382252047570649  0.0000
  O2     O2        0.386581228980412    0.152475074472842    0.358146939028588  0.0000
  O3     O3        0.981092918389808    0.984261498091064    0.486725513219619  0.0000
  O2     O2        0.503560116276461    0.020409527740791    0.487839302757152  0.0000
  O1     O1        0.003617739294474    0.957512077502070    0.230596547828149  0.0000
  O2     O2        0.508716763677153    0.032195279008101    0.239253851742802  0.0000
  O2     O2        0.019697343584120    0.998313367200156    0.725338334673278  0.0000
  O2     O2        0.474675036501046    0.017058414071406    0.731947791021551  0.0000
  O2     O2        0.621768034473442    0.136694932291747    0.094693543850385  0.0000
  O3     O3        0.852625451949840    0.904240320049133    0.116110203114324  0.0000
  O2     O2        0.366228468711178    0.149680313518886    0.876567130778753  0.0000
  O2     O2        0.114128874281253    0.850714641957800    0.892883064746408  0.0000
  O2     O2        0.393924657829722    0.808290511145203    0.880072961807918  0.0000
  O2     O2        0.084874068124624    0.195201288414292    0.905782926168385  0.0000
  O2     O2        0.580227960423002    0.800765251427392    0.098674457093556  0.0000
  O1     O1        0.913497278454623    0.236446479627028    0.126376108875794  0.0000
  O2     O2        0.492923779846520    0.042415772655741    0.984580734494755  0.0000
  O3     O3        0.977605919353405    0.962316359304660    0.965071852084001  0.0000
  O2     O2        0.143143004985666    0.519941813089865    0.311359503127825  0.0000
  O2     O2        0.365210027101992    0.485375864498685    0.302542004142680  0.0000
  O3     O3        0.860541990604268    0.558312219631617    0.698543702442890  0.0000
  O2     O2        0.631163236422929    0.490756257182781    0.687686348428139  0.0000
  O2     O2        0.245644625149851    0.264233670278163    0.314949301458209  0.0000
  O2     O2        0.262614278681642    0.740031954800847    0.311482477890223  0.0000
  O3     O3        0.751446467186105    0.283379503615039    0.660552316879126  0.0000
  O2     O2        0.734441004687420    0.748884632899426    0.675470491303038  0.0000
  O2     O2        0.132871141735035    0.263654027444828    0.138971050295045  0.0000
  O2     O2        0.362636636092753    0.730089324292961    0.120518701381645  0.0000
  O1     O1        0.858641524458078    0.281491028629625    0.877400139500340  0.0000
  O2     O2        0.632069283560817    0.737180033280255    0.867457271405054  0.0000
  O2     O2        0.824102983397162    0.791561869787842    0.877493731387394  0.0000
  O2     O2        0.672837612268394    0.256351894029116    0.867396995847334  0.0000
  O2     O2        0.151100082299808    0.772626389132975    0.135921671062726  0.0000
  O2     O2        0.343448892589035    0.241310809414610    0.121672339971743  0.0000
  O2     O2        0.619996791329822    0.477094700984535    0.040347143256230  0.0000
  O3     O3        0.865263136948009    0.570676138501181    0.056288221984961  0.0000
  O2     O2        0.356718228968501    0.483383627567895    0.939348851854386  0.0000
  O2     O2        0.126736067608683    0.518831984097981    0.964215600642021  0.0000
  O3     O3        0.751650362576787    0.305182262050882    0.080962668460448  0.0000
  O2     O2        0.728060043692534    0.717714886109511    0.067532129046915  0.0000
  O2     O2        0.233138623200101    0.273188580276272    0.945379440314949  0.0000
  O2     O2        0.250068532354434    0.727917700495058    0.945338763305166  0.0000
