data_c00354.vasp
_audit_creation_method             Generated by GULP
_audit_author_name                 Salvador R. G. Balestra
_symmetry_space_group_name_H-M     'P 1             '
_symmetry_Int_Tables_number        1

loop_
_symmetry_equiv_pos_site_id
_symmetry_equiv_pos_as_xyz
_cell_length_a                       17.0710
_cell_length_b                        7.5936
_cell_length_c                       10.3747
_cell_angle_alpha                   90.3468
_cell_angle_beta                    91.0237
_cell_angle_gamma                   90.5544

loop_
_atom_site_label
_atom_site_type_symbol
_atom_site_fract_x
_atom_site_fract_y
_atom_site_fract_z
_atom_site_charge
  Ge     Ge        0.052090000000021    0.000000000000000    0.372269999999958  0.0000
  Ge     Ge        0.444373150853180    0.030073574675345    0.876265308575106  0.0000
  Ge     Ge        0.060593305551127    0.001299436244014    0.870010095536909  0.0000
  Ge     Ge        0.178169658603793    0.280771250883061    0.287188884865692  0.0000
  Si     Si        0.459218223916654    0.031038891976471    0.364460613910491  0.0000
  Si     Si        0.949315995643644    0.005717873461031    0.624047132976565  0.0000
  Si     Si        0.551016527371742    0.015473787017027    0.629119319482260  0.0000
  Si     Si        0.561367602328912    0.013777090890531    0.115925245503761  0.0000
  Si     Si        0.950797152969369    0.022259309570875    0.109434781578098  0.0000
  Si     Si        0.338156511905188    0.746817040893318    0.283525485274928  0.0000
  Si     Si        0.836220735933590    0.296966267429763    0.729495081246961  0.0000
  Si     Si        0.666492501567574    0.727897348191584    0.728296262095442  0.0000
  Si     Si        0.846844910233103    0.702079549391439    0.727011757248433  0.0000
  Si     Si        0.656540558524448    0.321934545061449    0.727797676315922  0.0000
  Si     Si        0.156923283416749    0.694344000322493    0.289105115756130  0.0000
  Si     Si        0.361025152238116    0.343516170287296    0.282724965000238  0.0000
  Si     Si        0.656349686741500    0.331404258736054    0.028792466286090  0.0000
  Si     Si        0.853390836958921    0.702654446562721    0.027636357291965  0.0000
  Si     Si        0.356745152609394    0.353449806929283    0.981367549027080  0.0000
  Si     Si        0.149437771510287    0.684926515731685    0.991832204627579  0.0000
  Si     Si        0.329278019959217    0.749055924872464    0.983270343783332  0.0000
  Si     Si        0.176878729258258    0.282634279466478    0.984092431215189  0.0000
  Si     Si        0.672079701706333    0.730750818753211    0.028894868616122  0.0000
  Si     Si        0.836820950920838    0.304184880176003    0.031459002824609  0.0000
  O1     O1        0.126519858451438    0.151503915533252    0.388802879921662  0.0000
  O2     O2        0.387506472534212    0.889841901361754    0.366976138029389  0.0000
  O2     O2        0.890056707159445    0.165409399967886    0.650870531454308  0.0000
  O2     O2        0.612787675422492    0.857314706453284    0.645293358232781  0.0000
  O2     O2        0.904807761437457    0.819339587601096    0.643526828307364  0.0000
  O2     O2        0.595571909538942    0.202508496599773    0.647364853525130  0.0000
  O3     O3        0.097485407324639    0.798007119942259    0.377759057802524  0.0000
  O2     O2        0.425326807661772    0.229104956171473    0.360886272535023  0.0000
  O3     O3        0.977016530847662    0.016041408117987    0.478809775700803  0.0000
  O2     O2        0.514987743543982    0.006429840291290    0.486871742322795  0.0000
  O3     O3        0.011796823590961    0.047161626302398    0.222802770263193  0.0000
  O2     O2        0.511499812670501    0.992263745394522    0.241913095221706  0.0000
  O3     O3        0.026601142412421    0.014758364700296    0.713388817665452  0.0000
  O3     O3        0.479937549683835    0.998334634367345    0.725294443958855  0.0000
  O2     O2        0.597691321732196    0.211489888529130    0.110173892025929  0.0000
  O2     O2        0.912416269640334    0.825141381242515    0.111154353543790  0.0000
  O3     O3        0.416447843300161    0.246654677653281    0.896176579710151  0.0000
  O3     O3        0.089272892217949    0.787413757452257    0.902094607788608  0.0000
  O3     O3        0.363039696188983    0.895403024105917    0.891952002479188  0.0000
  O3     O3        0.137596954010826    0.149688792531693    0.883298178716796  0.0000
  O2     O2        0.631112738970534    0.871247911320535    0.119889792611978  0.0000
  O2     O2        0.881514556357191    0.166044798477667    0.120767418557884  0.0000
  O3     O3        0.511214127862079    0.965276275514157    0.990214125719702  0.0000
  O3     O3        0.989439589443096    0.063709583500562    0.973766299763398  0.0000
  O3     O3        0.143281108896240    0.490582282119941    0.308752331635787  0.0000
  O2     O2        0.372451940543766    0.552304039926347    0.310201955293511  0.0000
  O2     O2        0.861906832726736    0.496860347914328    0.696884969656361  0.0000
  O2     O2        0.640700047152681    0.526586287769977    0.698237455113924  0.0000
  O3     O3        0.276551698493655    0.281907513177107    0.327564575118861  0.0000
  O2     O2        0.247204539549573    0.750887417456130    0.323473418544064  0.0000
  O2     O2        0.744866752889473    0.270409780350343    0.690328338122536  0.0000
  O2     O2        0.757449175683682    0.752694629655520    0.692371056445816  0.0000
  O3     O3        0.168417167260226    0.210784617494732    0.128445997042630  0.0000
  O2     O2        0.343941517497994    0.798911780549262    0.133610352453510  0.0000
  O2     O2        0.846423062244800    0.258895300717151    0.880727998294776  0.0000
  O2     O2        0.656781653672376    0.774466798432772    0.878619135630868  0.0000
  O2     O2        0.866601219684519    0.742517117867169    0.876863701671939  0.0000
  O2     O2        0.641935348780360    0.284446118455703    0.878285747602106  0.0000
  O2     O2        0.137632015899250    0.746549664784322    0.139967534740953  0.0000
  O2     O2        0.372076436639225    0.304441932203708    0.131067750811352  0.0000
  O2     O2        0.638182035080965    0.535489754171650    0.057057537708928  0.0000
  O2     O2        0.871719948146865    0.499762100023328    0.059456280051010  0.0000
  O2     O2        0.370054171246927    0.560755945021323    0.957262742391591  0.0000
  O2     O2        0.136221869631860    0.475113965775582    0.979193608124173  0.0000
  O2     O2        0.745905398477140    0.293265309594503    0.067933894552795  0.0000
  O2     O2        0.764082587444359    0.742302388677595    0.062102420454264  0.0000
  O2     O2        0.267504564084633    0.300841921147815    0.945823148040464  0.0000
  O2     O2        0.237210029132092    0.734899655308898    0.950757533431220  0.0000
