data_c00364.vasp
_audit_creation_method             Generated by GULP
_audit_author_name                 Salvador R. G. Balestra
_symmetry_space_group_name_H-M     'P 1             '
_symmetry_Int_Tables_number        1

loop_
_symmetry_equiv_pos_site_id
_symmetry_equiv_pos_as_xyz
_cell_length_a                       17.0652
_cell_length_b                        7.5655
_cell_length_c                       10.4434
_cell_angle_alpha                   91.7731
_cell_angle_beta                    90.5210
_cell_angle_gamma                   89.5382

loop_
_atom_site_label
_atom_site_type_symbol
_atom_site_fract_x
_atom_site_fract_y
_atom_site_fract_z
_atom_site_charge
  Ge     Ge        0.052090000000021    0.000000000000000    0.372269999999958  0.0000
  Ge     Ge        0.446537198363687    0.947467931517689    0.873012062007923  0.0000
  Ge     Ge        0.155117733807792    0.314138620232658    0.287932099050374  0.0000
  Ge     Ge        0.654580999667287    0.636071228917187    0.704890393137091  0.0000
  Si     Si        0.460448093330398    0.974737541591125    0.357616508482369  0.0000
  Si     Si        0.957844550605834    0.953617949918122    0.634173117389368  0.0000
  Si     Si        0.550877287143440    0.943960553976288    0.619292242791364  0.0000
  Si     Si        0.563405306465989    0.976425780275218    0.110796403130408  0.0000
  Si     Si        0.947254136980021    0.976774851644578    0.117366319909659  0.0000
  Si     Si        0.061352426724398    0.967461760973797    0.886778531885342  0.0000
  Si     Si        0.359223763695893    0.662134665889073    0.264970060281142  0.0000
  Si     Si        0.852922533626946    0.264735838202259    0.716505559902776  0.0000
  Si     Si        0.838644342904569    0.670966507019738    0.708831299873089  0.0000
  Si     Si        0.672623608008934    0.223098715038158    0.717726755512341  0.0000
  Si     Si        0.179822826502157    0.722589728779643    0.270416996075158  0.0000
  Si     Si        0.339515409292958    0.257640082155229    0.278341046112935  0.0000
  Si     Si        0.675128649321401    0.253691966780483    0.017104949947390  0.0000
  Si     Si        0.835784289805023    0.689957594192155    0.009037378675352  0.0000
  Si     Si        0.330574566239283    0.230899702490280    0.980422761471783  0.0000
  Si     Si        0.176443825583649    0.685906525945158    0.970556439973029  0.0000
  Si     Si        0.356206585943840    0.628405848541763    0.967666334268177  0.0000
  Si     Si        0.149551506128135    0.290122694940649    0.984164561336708  0.0000
  Si     Si        0.654408236014547    0.654322552730267    0.009295126095616  0.0000
  Si     Si        0.855594387247840    0.290688948269935    0.014995064594326  0.0000
  O1     O1        0.086678316069723    0.211214780551218    0.377297321868430  0.0000
  O2     O2        0.420425607889796    0.782352247673562    0.345370511115176  0.0000
  O2     O2        0.912108736239406    0.142152084054875    0.633915448440198  0.0000
  O3     O3        0.584850754096888    0.746185560951532    0.617447624708696  0.0000
  O2     O2        0.894294913666749    0.796565657565174    0.629843112666113  0.0000
  O2     O2        0.626886930367957    0.067808408583621    0.642966150681459  0.0000
  O3     O3        0.137915399484555    0.882230799877566    0.343230027209886  0.0000
  O2     O2        0.394167756210448    0.127754912811600    0.359661162015342  0.0000
  O3     O3        0.012730718373999    0.935889445971971    0.513587999317176  0.0000
  O2     O2        0.509499646640829    0.990339698204459    0.487341938234154  0.0000
  O3     O3        0.980457608694172    0.959768902087965    0.257982945796556  0.0000
  O2     O2        0.521150954680835    0.001990902095640    0.244818145018264  0.0000
  O2     O2        0.011207575603733    0.937980640823475    0.759783214796376  0.0000
  O3     O3        0.486747059042079    0.978860825412423    0.727327598960280  0.0000
  O2     O2        0.633811939264550    0.118020585151531    0.108571354575178  0.0000
  O2     O2        0.876427012133911    0.839088674544314    0.096950114699108  0.0000
  O3     O3        0.364064679124715    0.080299644193019    0.888629006634269  0.0000
  O2     O2        0.133245947073721    0.827209316083536    0.882252029496912  0.0000
  O3     O3        0.416721478375414    0.729807594950743    0.882305754730670  0.0000
  O2     O2        0.093134798464039    0.168173153000553    0.894289250873620  0.0000
  O2     O2        0.597464017148676    0.776449568774928    0.096813606891567  0.0000
  O2     O2        0.914794852708412    0.177006131119988    0.100168253092945  0.0000
  O3     O3        0.506709524374057    0.020969555764027    0.994714788020303  0.0000
  O2     O2        0.012156928465402    0.926190470581866    0.012333080983878  0.0000
  O3     O3        0.141850312702272    0.538722777770538    0.308178774433426  0.0000
  O2     O2        0.373522237506058    0.456655139436893    0.293862541614092  0.0000
  O2     O2        0.867362775975374    0.468404713514240    0.685068352023185  0.0000
  O3     O3        0.639177575735701    0.412777593561047    0.682065014310669  0.0000
  O3     O3        0.250961627378528    0.257119646917977    0.326062414887683  0.0000
  O2     O2        0.271835879151977    0.717338864306581    0.307449407032883  0.0000
  O2     O2        0.764104755222005    0.212011260057606    0.679866441101359  0.0000
  O3     O3        0.749274442220083    0.687226450001658    0.663888286989690  0.0000
  O3     O3        0.133394212070627    0.249995097957847    0.130696628840038  0.0000
  O2     O2        0.370992532576521    0.696470534353750    0.114671911828326  0.0000
  O2     O2        0.868388825580423    0.233476146569952    0.866650097749263  0.0000
  O3     O3        0.636284519512704    0.697811543155217    0.862979266255713  0.0000
  O2     O2        0.844169741577133    0.727232121333013    0.859010821721402  0.0000
  O2     O2        0.664471455515141    0.192772556409813    0.869105957837837  0.0000
  O2     O2        0.171720963907626    0.749241411705228    0.118258269450861  0.0000
  O2     O2        0.342230581105770    0.189434536458202    0.130296603036026  0.0000
  O2     O2        0.637455632275979    0.449367732564283    0.036304931283825  0.0000
  O2     O2        0.873724128314335    0.498267855280328    0.038511980294740  0.0000
  O2     O2        0.371463636601417    0.418782666386284    0.953072982489949  0.0000
  O2     O2        0.133871660078256    0.495827703626529    0.953995686591457  0.0000
  O2     O2        0.766546218856140    0.254950661603146    0.054683176982257  0.0000
  O2     O2        0.744576023339745    0.694265596873604    0.043734368855213  0.0000
  O2     O2        0.238818599967982    0.245202458642160    0.950438711842561  0.0000
  O2     O2        0.266611381972712    0.672587220003970    0.927189226302397  0.0000
