data_c00373.vasp
_audit_creation_method             Generated by GULP
_audit_author_name                 Salvador R. G. Balestra
_symmetry_space_group_name_H-M     'P 1             '
_symmetry_Int_Tables_number        1

loop_
_symmetry_equiv_pos_site_id
_symmetry_equiv_pos_as_xyz
_cell_length_a                       17.0324
_cell_length_b                        7.5630
_cell_length_c                       10.3753
_cell_angle_alpha                   91.5739
_cell_angle_beta                    89.9510
_cell_angle_gamma                   88.7964

loop_
_atom_site_label
_atom_site_type_symbol
_atom_site_fract_x
_atom_site_fract_y
_atom_site_fract_z
_atom_site_charge
  Ge     Ge        0.052090000000021    0.000000000000000    0.372269999999958  0.0000
  Ge     Ge        0.447988977502601    0.933212463597092    0.862022611195002  0.0000
  Ge     Ge        0.153892489369960    0.313445213652817    0.289335814882509  0.0000
  Ge     Ge        0.359070356389000    0.606136698503824    0.957066973604139  0.0000
  Si     Si        0.458759126677961    0.967374281509485    0.354759387196893  0.0000
  Si     Si        0.956896526742815    0.957220708435996    0.634036663701802  0.0000
  Si     Si        0.553983135312596    0.962650549414426    0.614355652807241  0.0000
  Si     Si        0.559980751489800    0.979434512830500    0.102944491182673  0.0000
  Si     Si        0.946362507215620    0.971672727890271    0.120597319540818  0.0000
  Si     Si        0.060325573620621    0.959685627361410    0.887691897729556  0.0000
  Si     Si        0.359180242133415    0.655672927170822    0.261897745576520  0.0000
  Si     Si        0.851291940538104    0.271257971176189    0.709604024991423  0.0000
  Si     Si        0.657846294545862    0.655357683067495    0.711823745270385  0.0000
  Si     Si        0.838857068585935    0.677913365746477    0.712502124080658  0.0000
  Si     Si        0.670967822932977    0.247369132599512    0.711046541016351  0.0000
  Si     Si        0.180211722160560    0.718730189266008    0.261859985969802  0.0000
  Si     Si        0.338385157865317    0.252257012673911    0.283478541219369  0.0000
  Si     Si        0.672352778180100    0.256060081168236    0.011820067281630  0.0000
  Si     Si        0.836801300105596    0.685998237406134    0.013187926050793  0.0000
  Si     Si        0.331304544730652    0.207058386157887    0.983675885053725  0.0000
  Si     Si        0.176926849416560    0.670565236554036    0.959164758856071  0.0000
  Si     Si        0.149494619137259    0.280103047530817    0.985385897353829  0.0000
  Si     Si        0.655366461000515    0.657264893766768    0.011482377907174  0.0000
  Si     Si        0.853179727515779    0.285097423798075    0.010751915922681  0.0000
  O1     O1        0.085851053173241    0.211086893996892    0.381100570716619  0.0000
  O2     O2        0.419101163673269    0.775973043532333    0.344276092540996  0.0000
  O2     O2        0.911663370052718    0.148045290209897    0.626480393473848  0.0000
  O2     O2        0.597071573289241    0.771786403185166    0.630875376546077  0.0000
  O2     O2        0.891189101248365    0.805652590742186    0.629060297992800  0.0000
  O2     O2        0.618258224578038    0.115452058755739    0.627604014166165  0.0000
  O3     O3        0.137121138774440    0.883296462266921    0.329838896057030  0.0000
  O2     O2        0.391858411287553    0.121986135607400    0.369330710527707  0.0000
  O3     O3        0.016085577441769    0.932417158123183    0.517359385235960  0.0000
  O2     O2        0.516727584808073    0.970643331788249    0.474507037134595  0.0000
  O3     O3        0.976939969386804    0.965995467444050    0.263915273761170  0.0000
  O2     O2        0.511251571885524    0.007476386151595    0.231922227723397  0.0000
  O2     O2        0.005048724581884    0.942636851651516    0.765431238448755  0.0000
  O3     O3        0.484010977345549    0.989987732792749    0.715245853985503  0.0000
  O2     O2        0.629781208623169    0.120881703289929    0.102539655502903  0.0000
  O2     O2        0.878094348831651    0.828743631900208    0.104247733767870  0.0000
  O3     O3        0.358960879435826    0.041450874895838    0.897976823579071  0.0000
  O2     O2        0.129620749233108    0.812026102718443    0.874361723892924  0.0000
  O1     O1        0.426102616526209    0.714271122602302    0.866539524297051  0.0000
  O2     O2        0.095871353594842    0.155825131107944    0.894461382589419  0.0000
  O2     O2        0.596282275155972    0.779254232099783    0.096600241175373  0.0000
  O2     O2        0.912124900012246    0.168472560249761    0.094453380560737  0.0000
  O3     O3        0.508464788343749    0.017428482143627    0.979621268517869  0.0000
  O2     O2        0.014528373703306    0.919772991111633    0.018911202286243  0.0000
  O3     O3        0.138585355195924    0.539167296203377    0.300301938931442  0.0000
  O2     O2        0.374618939864508    0.448639875407763    0.289509416921460  0.0000
  O2     O2        0.865939838658937    0.475775169661229    0.680077847397758  0.0000
  O2     O2        0.643659082345418    0.448371811439888    0.683197182240859  0.0000
  O3     O3        0.249655899177423    0.261938330218033    0.333366042384782  0.0000
  O2     O2        0.270837377254686    0.708256430392566    0.307195835632323  0.0000
  O2     O2        0.762302313760236    0.221193931973776    0.672428546997255  0.0000
  O2     O2        0.747097820688124    0.703521019017679    0.677125394696090  0.0000
  O3     O3        0.133428700008767    0.239239917306768    0.133118430374371  0.0000
  O3     O3        0.371678973707985    0.690852186603770    0.112523832669713  0.0000
  O2     O2        0.866307368633888    0.236719554587683    0.860144911208935  0.0000
  O2     O2        0.639494675699379    0.701335218979692    0.861965409406618  0.0000
  O2     O2        0.849973298520853    0.726756150017208    0.863320901962206  0.0000
  O2     O2        0.660835632469273    0.204412791387435    0.861249461936406  0.0000
  O2     O2        0.181251492961545    0.738177322452831    0.107592646722424  0.0000
  O2     O2        0.339312255666313    0.175062212905166    0.136725366189171  0.0000
  O2     O2        0.637084954502112    0.453813833115057    0.038057652333808  0.0000
  O2     O2        0.871430171771541    0.490343094442570    0.041000302677573  0.0000
  O3     O3        0.378603619302087    0.382058530037166    0.948798650882072  0.0000
  O2     O2        0.130566820274648    0.484786973331484    0.953765787428142  0.0000
  O2     O2        0.763787092034212    0.247518479108601    0.048353674883455  0.0000
  O2     O2        0.744871972581865    0.697245816763919    0.046753976864315  0.0000
  O2     O2        0.240542144076996    0.246593284827150    0.952684380358153  0.0000
  O3     O3        0.263962897081998    0.647891391086364    0.904707740197261  0.0000
