data_c00350.vasp
_audit_creation_method             Generated by GULP
_audit_author_name                 Salvador R. G. Balestra
_symmetry_space_group_name_H-M     'P 1             '
_symmetry_Int_Tables_number        1

loop_
_symmetry_equiv_pos_site_id
_symmetry_equiv_pos_as_xyz
_cell_length_a                       17.0427
_cell_length_b                        7.6220
_cell_length_c                       10.3562
_cell_angle_alpha                   90.4069
_cell_angle_beta                    89.9052
_cell_angle_gamma                   89.6530

loop_
_atom_site_label
_atom_site_type_symbol
_atom_site_fract_x
_atom_site_fract_y
_atom_site_fract_z
_atom_site_charge
  Ge     Ge        0.052090000000021    0.000000000000000    0.372269999999958  0.0000
  Ge     Ge        0.940143778609603    0.988044077373117    0.117738470908603  0.0000
  Ge     Ge        0.330881302063889    0.252203161547725    0.960005540083367  0.0000
  Ge     Ge        0.169424738454567    0.706666963583205    0.964039983530190  0.0000
  Si     Si        0.452168391473960    0.976785727972821    0.349250088272199  0.0000
  Si     Si        0.949236001700241    0.989136704813041    0.631307916508098  0.0000
  Si     Si        0.550070428345703    0.975782140760792    0.608724585868217  0.0000
  Si     Si        0.550870093129014    0.990270703020855    0.093767017744744  0.0000
  Si     Si        0.441217333853926    0.968495000969005    0.856472319496324  0.0000
  Si     Si        0.053832620760327    0.987775191568985    0.880925292267950  0.0000
  Si     Si        0.155443248092362    0.307519861401161    0.270404245647371  0.0000
  Si     Si        0.352197870383399    0.665517675923530    0.259190360766405  0.0000
  Si     Si        0.843833257822095    0.295972240611985    0.703963015470284  0.0000
  Si     Si        0.652666479131021    0.670963325057284    0.695864035980137  0.0000
  Si     Si        0.833959408783913    0.699971854515949    0.704958701077128  0.0000
  Si     Si        0.663362512128966    0.269198279293873    0.698675266504460  0.0000
  Si     Si        0.173175912264742    0.714219636608921    0.267841697102784  0.0000
  Si     Si        0.335462293733949    0.262196523399281    0.266203365247560  0.0000
  Si     Si        0.663223145844932    0.274093978187530    0.000659044716860  0.0000
  Si     Si        0.826297551474354    0.705169580251980    0.004804255548834  0.0000
  Si     Si        0.353829422493310    0.650811916247700    0.956505948385706  0.0000
  Si     Si        0.145709175532130    0.306021242134908    0.971525887092587  0.0000
  Si     Si        0.644964150509272    0.671539828759065    0.996028485490288  0.0000
  Si     Si        0.844172540177373    0.305013229093957    0.004738189408237  0.0000
  O3     O3        0.095056765412459    0.204339893108812    0.357639803099933  0.0000
  O2     O2        0.413176092249874    0.784687394372269    0.338238544974709  0.0000
  O2     O2        0.902120530937302    0.174072670391809    0.619886386529824  0.0000
  O2     O2        0.597250103571630    0.791762086079959    0.608239706569801  0.0000
  O2     O2        0.886643326585450    0.829902731454842    0.619993479808959  0.0000
  O2     O2        0.611772251076275    0.135038034779388    0.615667419503001  0.0000
  O3     O3        0.123637368955754    0.839942495064725    0.359328585474719  0.0000
  O2     O2        0.385609089659033    0.128430434564788    0.353435841658300  0.0000
  O3     O3        0.015727695432637    0.977870815064486    0.526215924074438  0.0000
  O2     O2        0.501183906916135    0.989258882331016    0.479165610712273  0.0000
  O1     O1        0.974014707547688    0.976699074502660    0.271526644842623  0.0000
  O2     O2        0.511122733055336    0.009270601957165    0.231809431892983  0.0000
  O2     O2        0.990647245532805    0.975305154312038    0.769440589666891  0.0000
  O2     O2        0.490072342563785    0.987128511197361    0.727032074560032  0.0000
  O2     O2        0.619532953045144    0.133532786838457    0.088155632392065  0.0000
  O3     O3        0.864629156039373    0.840376298763488    0.100681274744679  0.0000
  O3     O3        0.366233282554852    0.095129683018417    0.855361775466063  0.0000
  O3     O3        0.126266538572528    0.855418337056789    0.861836673280827  0.0000
  O2     O2        0.413643771335394    0.768105654427516    0.873871911742844  0.0000
  O2     O2        0.084701876664604    0.187571955242395    0.891659072579684  0.0000
  O2     O2        0.585551334204206    0.793637032347125    0.076996726653151  0.0000
  O3     O3        0.904172843850421    0.197331510529792    0.089581611014520  0.0000
  O2     O2        0.489702105901629    0.036352745854792    0.981064785704286  0.0000
  O3     O3        0.014487609846517    0.928244502465010    0.014636607477920  0.0000
  O2     O2        0.140753981895466    0.515837400491808    0.279789269910728  0.0000
  O2     O2        0.369458651084914    0.459419998554549    0.281972790290667  0.0000
  O2     O2        0.862248429881302    0.500122625079498    0.678080207293862  0.0000
  O2     O2        0.635572261944080    0.467026293771839    0.666419028981410  0.0000
  O2     O2        0.244689215315519    0.260759293419274    0.311553640885240  0.0000
  O2     O2        0.264846861399074    0.714121099529545    0.307511175307652  0.0000
  O2     O2        0.754990090869361    0.250128384861418    0.662335033833440  0.0000
  O2     O2        0.742921629970311    0.716973902127516    0.664920452929658  0.0000
  O2     O2        0.141379629067563    0.246758738271930    0.122007512845267  0.0000
  O2     O2        0.359505112833641    0.707198985874131    0.107568069387601  0.0000
  O2     O2        0.856693978658696    0.253359219481618    0.854500137225376  0.0000
  O2     O2        0.632632510624188    0.713248216726228    0.845046725923244  0.0000
  O2     O2        0.842643487658050    0.753275150084953    0.855241014858838  0.0000
  O2     O2        0.652722469978501    0.226950321767537    0.849753410486913  0.0000
  O3     O3        0.165377571307809    0.780599121306990    0.121915608739367  0.0000
  O3     O3        0.340248763855906    0.195326541183105    0.119860995387385  0.0000
  O2     O2        0.627185223198441    0.468224738310052    0.026447615506702  0.0000
  O2     O2        0.860427328455877    0.510344286947319    0.028852208989077  0.0000
  O3     O3        0.377475253535055    0.450472636100601    0.936586300143835  0.0000
  O3     O3        0.122093093009555    0.506937749170081    0.954951504818819  0.0000
  O2     O2        0.753989186733807    0.264734148063187    0.041172845894294  0.0000
  O2     O2        0.733792777791635    0.712499093621591    0.034208834014593  0.0000
  O3     O3        0.233425180701231    0.276620118738642    0.921252146924028  0.0000
  O3     O3        0.264907851213925    0.682498132384166    0.912733233823153  0.0000
