data_c00353.vasp
_audit_creation_method             Generated by GULP
_audit_author_name                 Salvador R. G. Balestra
_symmetry_space_group_name_H-M     'P 1             '
_symmetry_Int_Tables_number        1

loop_
_symmetry_equiv_pos_site_id
_symmetry_equiv_pos_as_xyz
_cell_length_a                       17.1013
_cell_length_b                        7.5956
_cell_length_c                       10.3450
_cell_angle_alpha                   90.1247
_cell_angle_beta                    90.2011
_cell_angle_gamma                   90.3594

loop_
_atom_site_label
_atom_site_type_symbol
_atom_site_fract_x
_atom_site_fract_y
_atom_site_fract_z
_atom_site_charge
  Ge     Ge        0.052090000000021    0.000000000000000    0.372269999999958  0.0000
  Ge     Ge        0.942617356925900    0.008425635551581    0.113590903973389  0.0000
  Ge     Ge        0.143647284507223    0.678900200781518    0.965021210287759  0.0000
  Ge     Ge        0.166767893723531    0.264796384083502    0.967092622716102  0.0000
  Si     Si        0.452077688023480    0.020248897540014    0.350192229793522  0.0000
  Si     Si        0.944180441459677    0.005637471883757    0.626085680626553  0.0000
  Si     Si        0.544743932634434    0.014380009065097    0.615170117920219  0.0000
  Si     Si        0.555947279686858    0.012080689183342    0.101453048910081  0.0000
  Si     Si        0.441650731979900    0.011653884654578    0.867231763717252  0.0000
  Si     Si        0.050598622784502    0.993685639623076    0.871414897901000  0.0000
  Si     Si        0.172337269172531    0.282271693674674    0.269595653753161  0.0000
  Si     Si        0.334050465669020    0.730876872643867    0.259890029674739  0.0000
  Si     Si        0.828400419103949    0.292128265181284    0.700744578227002  0.0000
  Si     Si        0.660989458892846    0.726911854690321    0.702481547667875  0.0000
  Si     Si        0.840766559106366    0.697480419135343    0.700977176300564  0.0000
  Si     Si        0.648056132945093    0.323116552253920    0.700633812595670  0.0000
  Si     Si        0.154829022137576    0.694915229549643    0.266059524938351  0.0000
  Si     Si        0.350770850368733    0.329263766989912    0.263917885314339  0.0000
  Si     Si        0.646872874862703    0.329658838241977    0.001497260638226  0.0000
  Si     Si        0.846358213358354    0.690342987705921    0.001668422510632  0.0000
  Si     Si        0.349528598736365    0.329278505629041    0.960616665815408  0.0000
  Si     Si        0.328450692114700    0.724356336230270    0.956542178007353  0.0000
  Si     Si        0.666097040501803    0.727593800965773    0.004593113260188  0.0000
  Si     Si        0.827139808484996    0.289949708506123    0.001239275012731  0.0000
  O3     O3        0.120937427675200    0.167530027656504    0.365414382843061  0.0000
  O2     O2        0.384970444930562    0.871574365649837    0.339024983064767  0.0000
  O2     O2        0.879928939607206    0.161209309168068    0.613695019320071  0.0000
  O2     O2        0.609133720146999    0.860240437835299    0.619608697296100  0.0000
  O2     O2        0.898814851067291    0.817617555457782    0.615973593136060  0.0000
  O2     O2        0.589093315670121    0.202648481212047    0.617697125658631  0.0000
  O3     O3        0.096991423943876    0.796820152939231    0.359851387456792  0.0000
  O2     O2        0.412711711737334    0.212692123638930    0.342656513075593  0.0000
  O3     O3        0.011502315905854    0.016589973825719    0.523448659013312  0.0000
  O2     O2        0.495398183248039    0.998770161278032    0.485263690732997  0.0000
  O1     O1        0.975844455008366    0.024060440778585    0.267661603887454  0.0000
  O2     O2        0.515590667777642    0.994662975460848    0.238888818671970  0.0000
  O2     O2        0.986169521076223    0.029304111141514    0.764159968591934  0.0000
  O2     O2        0.485228068141804    0.992772329043491    0.732695065100222  0.0000
  O2     O2        0.589392826907049    0.210177904629673    0.086816199506548  0.0000
  O3     O3        0.907897787566855    0.796617781076448    0.085454633255246  0.0000
  O2     O2        0.409963484165900    0.210410900403618    0.880703237214019  0.0000
  O3     O3        0.076066011699028    0.791423861910038    0.873212382347715  0.0000
  O2     O2        0.370396391117876    0.871868504220745    0.869870733230488  0.0000
  O3     O3        0.128720209100715    0.111224244899023    0.861655281438720  0.0000
  O2     O2        0.625524683507441    0.870599657200904    0.095398460369563  0.0000
  O3     O3        0.866760646042092    0.154248274917420    0.094890685964972  0.0000
  O2     O2        0.497057269931403    0.962866576141572    0.986544432255173  0.0000
  O3     O3        0.016494302191101    0.059638386374193    0.008941896446399  0.0000
  O2     O2        0.142232172194764    0.484057675014855    0.266392509659758  0.0000
  O2     O2        0.367915031077086    0.536010723856758    0.287406090063406  0.0000
  O2     O2        0.857116839471277    0.491870428828950    0.673704947153748  0.0000
  O2     O2        0.632103418485213    0.528172085554607    0.672366245196097  0.0000
  O2     O2        0.263463193109851    0.281963319791478    0.311705713787307  0.0000
  O2     O2        0.244293886476423    0.741117652079096    0.306512602119321  0.0000
  O2     O2        0.737050564126056    0.274677335680256    0.663425495124557  0.0000
  O2     O2        0.751801116368559    0.744893709384667    0.662895837393317  0.0000
  O3     O3        0.163625932063433    0.200029502816277    0.127326215080344  0.0000
  O2     O2        0.335093775927481    0.775424279515660    0.107983572582227  0.0000
  O2     O2        0.838908799652697    0.239458616142369    0.850667251151223  0.0000
  O2     O2        0.653318017415387    0.773575936177698    0.853912303073025  0.0000
  O2     O2        0.856919333074644    0.741555301575918    0.851098792496074  0.0000
  O2     O2        0.632221456502481    0.283617088229998    0.851202448091217  0.0000
  O3     O3        0.135602560569966    0.759380152955142    0.121731168883687  0.0000
  O2     O2        0.357994559123048    0.283423980779751    0.112537088662062  0.0000
  O2     O2        0.629582800196511    0.534141257625542    0.031360307220269  0.0000
  O2     O2        0.863299611686019    0.484399535150386    0.023521037474298  0.0000
  O2     O2        0.369300631597558    0.534603119562566    0.934483648544479  0.0000
  O1     O1        0.120368928228622    0.462698587731411    0.951380946289036  0.0000
  O2     O2        0.735905464549461    0.288366991399988    0.036756392094313  0.0000
  O2     O2        0.757364536447727    0.733037988667755    0.041309614112816  0.0000
  O3     O3        0.262087793206089    0.291206812509789    0.917070146557480  0.0000
  O3     O3        0.238848156295343    0.714455204418653    0.915160871174718  0.0000
