data_c00380.vasp
_audit_creation_method             Generated by GULP
_audit_author_name                 Salvador R. G. Balestra
_symmetry_space_group_name_H-M     'P 1             '
_symmetry_Int_Tables_number        1

loop_
_symmetry_equiv_pos_site_id
_symmetry_equiv_pos_as_xyz
_cell_length_a                       17.2899
_cell_length_b                        7.6472
_cell_length_c                       10.1884
_cell_angle_alpha                   89.1062
_cell_angle_beta                    90.0767
_cell_angle_gamma                   89.3876

loop_
_atom_site_label
_atom_site_type_symbol
_atom_site_fract_x
_atom_site_fract_y
_atom_site_fract_z
_atom_site_charge
  Ge     Ge        0.052090000000021    0.000000000000000    0.372269999999958  0.0000
  Ge     Ge        0.445771791715842    0.994465988705096    0.874317718809534  0.0000
  Ge     Ge        0.352243668387199    0.674452090515902    0.265946083261467  0.0000
  Ge     Ge        0.667035931320380    0.298248760138141    0.697384265934938  0.0000
  Si     Si        0.455996161303132    0.975082022057964    0.363941194032430  0.0000
  Si     Si        0.954770913298143    0.007879134706555    0.639216861572981  0.0000
  Si     Si        0.554159190223426    0.010715976912925    0.617932352070071  0.0000
  Si     Si        0.558959365719160    0.001317245457479    0.118528101331379  0.0000
  Si     Si        0.940856459102171    0.998915599958957    0.127958653362746  0.0000
  Si     Si        0.055916168944258    0.007845830794009    0.894840663169457  0.0000
  Si     Si        0.160869872545880    0.302120015867372    0.271300117091109  0.0000
  Si     Si        0.848863183050613    0.315161556921231    0.705714214032270  0.0000
  Si     Si        0.661291624031708    0.707465010528916    0.701100394790217  0.0000
  Si     Si        0.840750015668284    0.717149548850979    0.709452349935307  0.0000
  Si     Si        0.172082041560162    0.707174848199714    0.274996345253648  0.0000
  Si     Si        0.338285823487920    0.261779931443218    0.258616233433793  0.0000
  Si     Si        0.665189110632297    0.292328572058235    0.010116749433449  0.0000
  Si     Si        0.836201663475490    0.708445537597360    0.016215365907352  0.0000
  Si     Si        0.330328550363955    0.281318140683888    0.952842520728996  0.0000
  Si     Si        0.169099785541970    0.714481556384289    0.967456295414925  0.0000
  Si     Si        0.347242329183225    0.680031534964005    0.954331804746175  0.0000
  Si     Si        0.152823652521814    0.318589675271212    0.966229913795547  0.0000
  Si     Si        0.657583961412295    0.694862500795970    0.007607578342155  0.0000
  Si     Si        0.843633690568353    0.310075495757784    0.014448508066987  0.0000
  O3     O3        0.101761525698280    0.192861906549679    0.356476015028281  0.0000
  O3     O3        0.420338026563697    0.784307131895301    0.354864430997156  0.0000
  O2     O2        0.909940041036536    0.194839278523973    0.628554998370805  0.0000
  O2     O2        0.608125816529157    0.836864745245619    0.614349625226176  0.0000
  O2     O2        0.892214329923990    0.852380026938321    0.626888813246778  0.0000
  O3     O3        0.609879394301708    0.174504592534307    0.598383596415878  0.0000
  O3     O3        0.115030569947645    0.826672990995381    0.356388887395067  0.0000
  O2     O2        0.387566768709346    0.115462411016348    0.336286887745263  0.0000
  O3     O3        0.019122465886172    0.992161674033438    0.531203057712114  0.0000
  O2     O2        0.487059938374477    0.002930831488548    0.510382951558127  0.0000
  O3     O3        0.970688224271861    0.991281526842828    0.275057466710932  0.0000
  O2     O2        0.528897810215018    0.999434319206095    0.267492697925605  0.0000
  O2     O2        0.994871207069482    0.987826015362384    0.780567285314764  0.0000
  O3     O3        0.514307647073443    0.027971647417257    0.758354361874152  0.0000
  O2     O2        0.617856944472245    0.162100728518734    0.103563370608916  0.0000
  O2     O2        0.882464680162466    0.839405013861560    0.106734281655155  0.0000
  O3     O3        0.373345843139810    0.151849491067953    0.857969787524224  0.0000
  O2     O2        0.121806355569534    0.858136055160671    0.883145965361353  0.0000
  O3     O3        0.403175337995780    0.791689932176655    0.862282923489178  0.0000
  O2     O2        0.094164713380873    0.199992246428978    0.884390304510458  0.0000
  O2     O2        0.600679271309016    0.815169784876533    0.091174207306434  0.0000
  O2     O2        0.898275065934533    0.184304501170727    0.100678816454599  0.0000
  O3     O3        0.486468423690684    0.028591469907513    0.025397392277670  0.0000
  O2     O2        0.015069915217436    0.979164110173561    0.034801440060456  0.0000
  O2     O2        0.147505385343808    0.506376688008556    0.297233691210970  0.0000
  O3     O3        0.369732596146763    0.452987790803798    0.286462414826670  0.0000
  O2     O2        0.867428503954731    0.519259873153162    0.678072287521044  0.0000
  O3     O3        0.639408652228657    0.512297000573901    0.669192956777673  0.0000
  O2     O2        0.249318146255774    0.249323825298918    0.306721453798954  0.0000
  O3     O3        0.260288833394096    0.727507243909628    0.319138204513224  0.0000
  O3     O3        0.763279776925173    0.273225733935399    0.657967646652758  0.0000
  O2     O2        0.751266774313047    0.742928614522159    0.668639178793097  0.0000
  O2     O2        0.144865004619105    0.262362950859222    0.118430404509275  0.0000
  O3     O3        0.362951153224109    0.734892173686950    0.103331858235883  0.0000
  O2     O2        0.855409808853623    0.272650714155837    0.861096089964503  0.0000
  O2     O2        0.645817510088975    0.744812508110273    0.854875782642089  0.0000
  O2     O2        0.849762620185361    0.755416895086626    0.863778432522675  0.0000
  O3     O3        0.653834300952965    0.240085478478820    0.860324228912640  0.0000
  O2     O2        0.166317564409656    0.759926067917409    0.120913957391858  0.0000
  O2     O2        0.341612426491620    0.220307070373994    0.104125084406619  0.0000
  O2     O2        0.635783518353514    0.492022294489825    0.030825155820418  0.0000
  O2     O2        0.865035894563264    0.510144938983568    0.046231390778784  0.0000
  O2     O2        0.365343144895226    0.475258613221452    0.935610724806720  0.0000
  O2     O2        0.132119824282120    0.523415241533742    0.944172453130342  0.0000
  O2     O2        0.754834062884386    0.275589349412507    0.051275973766785  0.0000
  O2     O2        0.745694964768779    0.727510147037311    0.050407222786914  0.0000
  O2     O2        0.239666941002663    0.283970023788005    0.916929283525662  0.0000
  O2     O2        0.257364118527266    0.718533355462054    0.918849097361107  0.0000
