data_c00339.vasp
_audit_creation_method             Generated by GULP
_audit_author_name                 Salvador R. G. Balestra
_symmetry_space_group_name_H-M     'P 1             '
_symmetry_Int_Tables_number        1

loop_
_symmetry_equiv_pos_site_id
_symmetry_equiv_pos_as_xyz
_cell_length_a                       17.0642
_cell_length_b                        7.6185
_cell_length_c                       10.3269
_cell_angle_alpha                   90.1741
_cell_angle_beta                    90.3489
_cell_angle_gamma                   90.1722

loop_
_atom_site_label
_atom_site_type_symbol
_atom_site_fract_x
_atom_site_fract_y
_atom_site_fract_z
_atom_site_charge
  Ge     Ge        0.052090000000021    0.000000000000000    0.372269999999958  0.0000
  Ge     Ge        0.942302544109942    0.003912879988605    0.109076121158035  0.0000
  Ge     Ge        0.666944517892313    0.274199807811646    0.025839738688565  0.0000
  Ge     Ge        0.332987076369304    0.276830672832480    0.974469997055176  0.0000
  Si     Si        0.451171172358422    0.985140627850981    0.373312967149297  0.0000
  Si     Si        0.951479315616538    0.004398339513230    0.633513083227054  0.0000
  Si     Si        0.553941272636296    0.982021142149599    0.628551419249832  0.0000
  Si     Si        0.551692499349419    0.991014622026613    0.118248087420207  0.0000
  Si     Si        0.444616772075890    0.995219843312459    0.876114548847334  0.0000
  Si     Si        0.056483153814905    0.995315069625659    0.875206527540364  0.0000
  Si     Si        0.156796282950556    0.311102567676991    0.288332640218743  0.0000
  Si     Si        0.351439686149776    0.677930918627254    0.282439082458460  0.0000
  Si     Si        0.848086864915425    0.310872494763854    0.732165955526214  0.0000
  Si     Si        0.655164399639085    0.676188654394641    0.713799150834524  0.0000
  Si     Si        0.834206110689018    0.714013926870937    0.728340242128484  0.0000
  Si     Si        0.668971528427146    0.271603740456209    0.717818890925039  0.0000
  Si     Si        0.170332147316242    0.714475853720062    0.288267858382643  0.0000
  Si     Si        0.337371164585294    0.273292094574644    0.282256005451006  0.0000
  Si     Si        0.822520438188736    0.723448696517830    0.029480865949328  0.0000
  Si     Si        0.167367870574859    0.713172423207608    0.988028554181833  0.0000
  Si     Si        0.350616318210517    0.681841784284718    0.982435653655606  0.0000
  Si     Si        0.148970228349155    0.311696757495878    0.986233254077733  0.0000
  Si     Si        0.642168464488971    0.673688813902190    0.014704968183189  0.0000
  Si     Si        0.849014022615320    0.330237056699905    0.035959476533466  0.0000
  O3     O3        0.098057999625900    0.202413808440709    0.375261721110865  0.0000
  O2     O2        0.407995629532289    0.796098339464073    0.371928357518222  0.0000
  O2     O2        0.910332142454294    0.192258841472689    0.656745229170583  0.0000
  O2     O2        0.597881826888530    0.794220552586491    0.625897802246442  0.0000
  O2     O2        0.888984410413450    0.847473858811647    0.651244687236763  0.0000
  O2     O2        0.618095981147168    0.137999865747467    0.630378136998594  0.0000
  O3     O3        0.124627304840021    0.841440135167484    0.382676836065205  0.0000
  O2     O2        0.387516480914801    0.141451239835971    0.370899747084348  0.0000
  O3     O3        0.981824866068676    0.993295894283515    0.489331469697447  0.0000
  O2     O2        0.501697305548926    0.002276864933984    0.502032029447333  0.0000
  O1     O1        0.003604544917186    0.956459068759126    0.231430520270114  0.0000
  O2     O2        0.508547189834511    0.001798880714920    0.253219444510580  0.0000
  O2     O2        0.027736717088004    0.986367308509296    0.726463185498414  0.0000
  O2     O2        0.496907035899655    0.994686508809603    0.750115523664492  0.0000
  O3     O3        0.624301113045190    0.121940188602416    0.124023027490754  0.0000
  O3     O3        0.859032632901984    0.872558829348994    0.116949572444481  0.0000
  O3     O3        0.376720849230594    0.137806675204243    0.866457512753915  0.0000
  O2     O2        0.125971426766489    0.854229572047079    0.895736343441424  0.0000
  O2     O2        0.404943203255212    0.804708266915448    0.895130750716757  0.0000
  O2     O2        0.085819469005850    0.193180719794471    0.909250643669657  0.0000
  O2     O2        0.581382940456689    0.793459787986210    0.092262212962985  0.0000
  O3     O3        0.912318928394724    0.220983840723479    0.115198011638560  0.0000
  O2     O2        0.495587876049553    0.055467719940685    0.001264161964870  0.0000
  O3     O3        0.984545151823657    0.946019924158317    0.964121495065340  0.0000
  O2     O2        0.140273150393596    0.516213959001363    0.309662871643265  0.0000
  O2     O2        0.368967726633417    0.472188555780927    0.302917894194347  0.0000
  O2     O2        0.866365102202297    0.516305000933495    0.707167982402708  0.0000
  O2     O2        0.638330087603430    0.469674903599263    0.692406274982751  0.0000
  O2     O2        0.246505815935153    0.263952690688288    0.324082276111934  0.0000
  O2     O2        0.262604039673152    0.722569297917177    0.319959722628319  0.0000
  O2     O2        0.760930253327652    0.262753482232275    0.680933458285837  0.0000
  O2     O2        0.744706982993094    0.722091619856434    0.676287312478792  0.0000
  O2     O2        0.141323147789626    0.260620691341774    0.137622284037168  0.0000
  O2     O2        0.366637952022643    0.728611015272326    0.133100975895042  0.0000
  O2     O2        0.854367964525145    0.271788212845478    0.884794123882780  0.0000
  O2     O2        0.638064603200776    0.724143109360835    0.862979001533152  0.0000
  O2     O2        0.833429830822922    0.769846806195550    0.878160820145740  0.0000
  O3     O3        0.660516339027989    0.213623889005813    0.865318861591092  0.0000
  O2     O2        0.156407186543706    0.769892413447513    0.137904402189728  0.0000
  O3     O3        0.344691344455047    0.215617845617311    0.133963440800724  0.0000
  O3     O3        0.619964256196791    0.474421349428236    0.038915789269429  0.0000
  O2     O2        0.865349294136803    0.537077295433797    0.055248253790804  0.0000
  O3     O3        0.371874072022807    0.483609142100694    0.952738584489480  0.0000
  O2     O2        0.130760603892330    0.518870730462224    0.965749867401121  0.0000
  O3     O3        0.761761536016331    0.286535535934672    0.080940977285756  0.0000
  O2     O2        0.731032248624197    0.705345402672918    0.063613711758854  0.0000
  O3     O3        0.234798057562880    0.272594565408762    0.935659244763845  0.0000
  O2     O2        0.258753804953066    0.712104074851553    0.951624837729572  0.0000
