data_c00356.vasp
_audit_creation_method             Generated by GULP
_audit_author_name                 Salvador R. G. Balestra
_symmetry_space_group_name_H-M     'P 1             '
_symmetry_Int_Tables_number        1

loop_
_symmetry_equiv_pos_site_id
_symmetry_equiv_pos_as_xyz
_cell_length_a                       17.0923
_cell_length_b                        7.5985
_cell_length_c                       10.3472
_cell_angle_alpha                   89.5204
_cell_angle_beta                    90.9385
_cell_angle_gamma                   90.6018

loop_
_atom_site_label
_atom_site_type_symbol
_atom_site_fract_x
_atom_site_fract_y
_atom_site_fract_z
_atom_site_charge
  Ge     Ge        0.052090000000021    0.000000000000000    0.372269999999958  0.0000
  Ge     Ge        0.438953614922644    0.039899880955182    0.858037136086802  0.0000
  Ge     Ge        0.050231028275717    0.016735630027543    0.890315663135018  0.0000
  Ge     Ge        0.831771873900188    0.304477548745193    0.704288236093044  0.0000
  Si     Si        0.453008475491449    0.030766561833180    0.346868944015600  0.0000
  Si     Si        0.949394848765267    0.023593378492681    0.626807777059801  0.0000
  Si     Si        0.544661596820502    0.031464479520865    0.611483724198193  0.0000
  Si     Si        0.556165092799515    0.019678731673472    0.097667407159569  0.0000
  Si     Si        0.940471193107970    0.020763867933178    0.128644350206752  0.0000
  Si     Si        0.173871342698079    0.288086158789648    0.265754328184798  0.0000
  Si     Si        0.333838295976578    0.745028211588387    0.267871228391735  0.0000
  Si     Si        0.662477966708355    0.745372200991288    0.711168125794712  0.0000
  Si     Si        0.843116553810675    0.717970554019761    0.706965818595382  0.0000
  Si     Si        0.647961384499065    0.339216879612873    0.707235626437372  0.0000
  Si     Si        0.153732690506479    0.694182432108590    0.272113197685729  0.0000
  Si     Si        0.352916366498323    0.341952241805956    0.263114893445393  0.0000
  Si     Si        0.650941331901663    0.339048280506185    0.010012223149680  0.0000
  Si     Si        0.847818482290137    0.706700354439261    0.009233950659841  0.0000
  Si     Si        0.351154340109910    0.361129128080838    0.962066388752253  0.0000
  Si     Si        0.144266789596025    0.694090991027942    0.973846766265321  0.0000
  Si     Si        0.324484644665813    0.756722500544645    0.967261576215054  0.0000
  Si     Si        0.171621862184100    0.296889784789518    0.966380674287924  0.0000
  Si     Si        0.667350353865199    0.737317255767228    0.013499326196402  0.0000
  Si     Si        0.832090779174611    0.303711110821886    0.012242379431687  0.0000
  O3     O3        0.124132567194117    0.157356801071533    0.352186717961370  0.0000
  O2     O2        0.384904750072651    0.881386471778038    0.353083751807152  0.0000
  O3     O3        0.886929094189333    0.178064856603107    0.604841457419410  0.0000
  O2     O2        0.610283500159779    0.882239369868949    0.631091820016952  0.0000
  O2     O2        0.900670851040202    0.839593554491509    0.623379662550211  0.0000
  O2     O2        0.583166679927222    0.224838748946042    0.630653841347828  0.0000
  O3     O3        0.094801905745548    0.795872683477237    0.361041974181843  0.0000
  O2     O2        0.414014072223025    0.223645461716846    0.344406759830377  0.0000
  O3     O3        0.018740324646985    0.021799315467497    0.527518402907039  0.0000
  O2     O2        0.510997266404990    0.015249896553640    0.467689161159278  0.0000
  O3     O3        0.969896524539222    0.021094820738188    0.275217950002393  0.0000
  O2     O2        0.504332845026348    0.998768291556216    0.222200699112610  0.0000
  O3     O3        0.985212837986329    0.057100045073468    0.768961377864457  0.0000
  O3     O3        0.473081036766167    0.005691570302640    0.706240169773108  0.0000
  O2     O2        0.593163386866243    0.216640220362764    0.092671101914048  0.0000
  O2     O2        0.907254706856244    0.826146118242470    0.092036808964742  0.0000
  O3     O3        0.410720850117485    0.256074938876566    0.876585149039473  0.0000
  O3     O3        0.083535507426543    0.802220718107116    0.887739303988645  0.0000
  O3     O3        0.357730369937235    0.905922460969188    0.876432174618054  0.0000
  O3     O3        0.129490562523991    0.159469935648828    0.874898529580032  0.0000
  O2     O2        0.625408867388997    0.875953158940909    0.103847885142394  0.0000
  O2     O2        0.873856281207313    0.168260037136253    0.109612775957332  0.0000
  O3     O3        0.507400642581323    0.974983444903152    0.970095263937001  0.0000
  O3     O3        0.011735550506954    0.068976465887287    0.037598155254627  0.0000
  O2     O2        0.143218019122110    0.485208447563485    0.289796511625470  0.0000
  O2     O2        0.366041464657234    0.548070073203239    0.293529528825049  0.0000
  O3     O3        0.859380702263748    0.519228416072516    0.673990121092710  0.0000
  O2     O2        0.635248567795089    0.546408439567032    0.678437259635646  0.0000
  O2     O2        0.265800894283896    0.282161712128713    0.303221573604150  0.0000
  O2     O2        0.243044429521496    0.752417090235257    0.307327614565305  0.0000
  O3     O3        0.733469907680001    0.282580828218415    0.666810952542189  0.0000
  O2     O2        0.753242809086243    0.769760914709899    0.674001812702013  0.0000
  O2     O2        0.164454899660318    0.234274206603147    0.115841102416262  0.0000
  O2     O2        0.340598524016700    0.801323687573155    0.117977837367737  0.0000
  O3     O3        0.845382590612242    0.249387704464735    0.865454033396390  0.0000
  O2     O2        0.653551763424402    0.784336794899150    0.862764549534422  0.0000
  O2     O2        0.860659686184193    0.752740166063158    0.858929380329190  0.0000
  O2     O2        0.635299094830925    0.299906289381280    0.859116590527317  0.0000
  O2     O2        0.132227762099417    0.747511297352979    0.123829611727692  0.0000
  O2     O2        0.366968358201659    0.307327560084604    0.111884403862768  0.0000
  O2     O2        0.633397797849803    0.541750685828523    0.042049190209454  0.0000
  O2     O2        0.866215269626127    0.501396794898723    0.034751811644903  0.0000
  O2     O2        0.364634378930791    0.568955464445617    0.939279368968690  0.0000
  O2     O2        0.130297914246866    0.487036994798736    0.951947391267037  0.0000
  O2     O2        0.740536487645590    0.297163739509899    0.044612429548098  0.0000
  O2     O2        0.759226330539741    0.746437102827803    0.048110827227844  0.0000
  O2     O2        0.261811548176114    0.310826844540204    0.925734609479207  0.0000
  O2     O2        0.232424405162870    0.744909924577608    0.936377698641642  0.0000
