data_c00372.vasp
_audit_creation_method             Generated by GULP
_audit_author_name                 Salvador R. G. Balestra
_symmetry_space_group_name_H-M     'P 1             '
_symmetry_Int_Tables_number        1

loop_
_symmetry_equiv_pos_site_id
_symmetry_equiv_pos_as_xyz
_cell_length_a                       16.9710
_cell_length_b                        7.5881
_cell_length_c                       10.4584
_cell_angle_alpha                   91.0865
_cell_angle_beta                    90.4907
_cell_angle_gamma                   89.0107

loop_
_atom_site_label
_atom_site_type_symbol
_atom_site_fract_x
_atom_site_fract_y
_atom_site_fract_z
_atom_site_charge
  Ge     Ge        0.052090000000021    0.000000000000000    0.372269999999958  0.0000
  Ge     Ge        0.444353048430096    0.948773600582534    0.875098047041266  0.0000
  Ge     Ge        0.153625002331119    0.313578015695975    0.285274078997079  0.0000
  Ge     Ge        0.175909772746083    0.695830375342885    0.967550562489979  0.0000
  Si     Si        0.459166874734048    0.967025810250941    0.357469125638891  0.0000
  Si     Si        0.950797842276872    0.969154209812546    0.629459629939573  0.0000
  Si     Si        0.548591676437696    0.967002875651013    0.624055232064817  0.0000
  Si     Si        0.562040547432742    0.980495766326388    0.111280964492941  0.0000
  Si     Si        0.950839284088569    0.970001912202145    0.111868874682576  0.0000
  Si     Si        0.059984654082000    0.977828911610716    0.877398507151892  0.0000
  Si     Si        0.358740548798325    0.654439175447874    0.264518331093338  0.0000
  Si     Si        0.846686835091425    0.279154340642745    0.708961429267104  0.0000
  Si     Si        0.653965206176119    0.660416687563501    0.717859879562490  0.0000
  Si     Si        0.835597277423902    0.683626391123420    0.713660174080212  0.0000
  Si     Si        0.665413746668798    0.254357818075637    0.716837381347629  0.0000
  Si     Si        0.178975483456343    0.724372911340171    0.269016328974556  0.0000
  Si     Si        0.338248489475235    0.254513363661422    0.280243841220542  0.0000
  Si     Si        0.672566925656138    0.258875401553917    0.014813886068004  0.0000
  Si     Si        0.838400961168646    0.685212762952736    0.012143821894140  0.0000
  Si     Si        0.328373376641835    0.232332213074878    0.982242739406427  0.0000
  Si     Si        0.358759749581555    0.622576329701529    0.965517903069560  0.0000
  Si     Si        0.145343018382768    0.296413963654924    0.985994571868539  0.0000
  Si     Si        0.656259133574582    0.659686696728891    0.015216810088199  0.0000
  Si     Si        0.854466036318315    0.285047269767504    0.007409345730385  0.0000
  O1     O1        0.086665774255020    0.210035759172956    0.377880308633653  0.0000
  O2     O2        0.420623723526888    0.775304959791977    0.340798475488023  0.0000
  O2     O2        0.903848975998022    0.156840809335194    0.622100106555887  0.0000
  O2     O2        0.592977976982285    0.778246406190449    0.638054979437990  0.0000
  O2     O2        0.886731776038120    0.813949343929185    0.631063203708856  0.0000
  O2     O2        0.611995281825211    0.122617821748600    0.634769944289637  0.0000
  O3     O3        0.136542888499163    0.871455571009874    0.354707146671282  0.0000
  O2     O2        0.391408487035072    0.118546317678561    0.361036362049886  0.0000
  O3     O3        0.006285493121533    0.942404090493775    0.510611362778601  0.0000
  O2     O2        0.507957759504558    0.973480143303610    0.487233941324995  0.0000
  O3     O3        0.984196186349076    0.960925790764308    0.252471619835244  0.0000
  O2     O2        0.519750203617794    0.003482779799764    0.245380789360086  0.0000
  O2     O2        0.003551018579438    0.964071482144066    0.756459795903808  0.0000
  O3     O3        0.481359306513264    0.991909353925283    0.728156938006408  0.0000
  O2     O2        0.631565914306213    0.122768032180620    0.106310232210507  0.0000
  O2     O2        0.882364255633795    0.826022794278138    0.100253985990304  0.0000
  O3     O3        0.358362872453152    0.073304055524143    0.895136642686599  0.0000
  O3     O3        0.132005526912677    0.841244222787255    0.863426873337720  0.0000
  O3     O3        0.421926789176757    0.728157727694569    0.886437267253289  0.0000
  O2     O2        0.091360751809967    0.177018933562096    0.892301449372520  0.0000
  O2     O2        0.598351924085640    0.781981361377089    0.099708254938236  0.0000
  O2     O2        0.915083615081652    0.165946899388302    0.087186165475930  0.0000
  O3     O3        0.504567423202459    0.024290252885147    0.995441517995845  0.0000
  O2     O2        0.016378313482324    0.919422843820565    0.006718523068580  0.0000
  O3     O3        0.138234505881655    0.537567693548178    0.290052677267742  0.0000
  O2     O2        0.375585438691128    0.449404796822923    0.294152923278241  0.0000
  O2     O2        0.862228819766352    0.483013668227574    0.679397135688343  0.0000
  O2     O2        0.637845038046423    0.454918013143525    0.689840679634169  0.0000
  O3     O3        0.249604687460309    0.260801130533208    0.330088130010451  0.0000
  O2     O2        0.270815381961139    0.704690106215264    0.310258361567579  0.0000
  O2     O2        0.756482853335163    0.230653390908046    0.676863044995906  0.0000
  O2     O2        0.743060867237700    0.708090636074847    0.680836261677662  0.0000
  O3     O3        0.132988675624690    0.238317523584105    0.130874792065979  0.0000
  O2     O2        0.366338250449034    0.688761428559000    0.113648364915442  0.0000
  O2     O2        0.865538542446433    0.241530831684518    0.857315323136079  0.0000
  O2     O2        0.638607157390071    0.704822722082536    0.867245792875090  0.0000
  O2     O2        0.849275573521600    0.727595302850510    0.863159800935959  0.0000
  O2     O2        0.656813006649599    0.209586279288363    0.866068390210979  0.0000
  O3     O3        0.174673263641730    0.779175331709858    0.121908285072996  0.0000
  O2     O2        0.337619663457692    0.188848537239339    0.132386350852725  0.0000
  O2     O2        0.638842861176395    0.456216330155193    0.042841558698256  0.0000
  O2     O2        0.872918259378345    0.489277296538658    0.038719390063742  0.0000
  O2     O2        0.375346834760162    0.412461743955434    0.953716395017284  0.0000
  O3     O3        0.125085526362129    0.499566872781218    0.965514015944381  0.0000
  O2     O2        0.765182448775795    0.246770254327989    0.046187783110684  0.0000
  O2     O2        0.746779851939676    0.698391599130826    0.048394855969418  0.0000
  O2     O2        0.237129941899532    0.269305248324289    0.950722265834519  0.0000
  O3     O3        0.271333241823839    0.667561591308873    0.915997248470446  0.0000
