data_c00433.vasp
_audit_creation_method             Generated by GULP
_audit_author_name                 Salvador R. G. Balestra
_symmetry_space_group_name_H-M     'P 1             '
_symmetry_Int_Tables_number        1

loop_
_symmetry_equiv_pos_site_id
_symmetry_equiv_pos_as_xyz
_cell_length_a                       17.1775
_cell_length_b                        7.6089
_cell_length_c                       10.2561
_cell_angle_alpha                   90.9826
_cell_angle_beta                    90.4014
_cell_angle_gamma                   89.8688

loop_
_atom_site_label
_atom_site_type_symbol
_atom_site_fract_x
_atom_site_fract_y
_atom_site_fract_z
_atom_site_charge
  Ge     Ge        0.052090000000021    0.000000000000000    0.372269999999958  0.0000
  Ge     Ge        0.063933600114276    0.998466892116644    0.866352076668086  0.0000
  Ge     Ge        0.175841691868872    0.280259477539130    0.288651742337457  0.0000
  Ge     Ge        0.655830988578064    0.341894523274900    0.044595060645555  0.0000
  Si     Si        0.458427959864405    0.014977233329154    0.379286306663321  0.0000
  Si     Si        0.949801150059188    0.992416651199483    0.625374198411264  0.0000
  Si     Si        0.554505406865820    0.007068956747919    0.642860698287852  0.0000
  Si     Si        0.561749545301427    0.025557116450886    0.133475463624479  0.0000
  Si     Si        0.952571243853750    0.022402228669693    0.108196572199770  0.0000
  Si     Si        0.449355866716317    0.010301609649388    0.892746469076705  0.0000
  Si     Si        0.341077346506534    0.728087829186052    0.290436567714849  0.0000
  Si     Si        0.836383394447152    0.288645562134693    0.736753291120878  0.0000
  Si     Si        0.669430760890185    0.719397128562102    0.727927446629352  0.0000
  Si     Si        0.848619182604176    0.690923906934869    0.726236480489809  0.0000
  Si     Si        0.658733134938479    0.313268162796908    0.733709506794703  0.0000
  Si     Si        0.160921293896154    0.695930298589104    0.290530318809238  0.0000
  Si     Si        0.358295033797785    0.325020617600318    0.289943366981947  0.0000
  Si     Si        0.854216600040189    0.705090839455248    0.030047126559792  0.0000
  Si     Si        0.356175689299147    0.328360697644773    0.984081216105027  0.0000
  Si     Si        0.158902266941040    0.688659150106696    0.989980208210368  0.0000
  Si     Si        0.338327701763367    0.725100687215539    0.985278496813234  0.0000
  Si     Si        0.176810514846757    0.282274064533756    0.982646536518000  0.0000
  Si     Si        0.673915530340849    0.745460130109256    0.032099885126314  0.0000
  Si     Si        0.837429434505392    0.310499574680204    0.044353403583153  0.0000
  O1     O1        0.122111610499241    0.158365622190688    0.391519570072379  0.0000
  O2     O2        0.390307173855468    0.869410991418119    0.373720949713831  0.0000
  O2     O2        0.891408851120919    0.149996713651085    0.664339804394710  0.0000
  O2     O2        0.616739528898394    0.847242867710201    0.641157350562807  0.0000
  O2     O2        0.906574169120636    0.805348665797480    0.640685278733003  0.0000
  O2     O2        0.599775072002916    0.192262665127775    0.649669187886700  0.0000
  O3     O3        0.101552616077691    0.802546811157000    0.380062913960338  0.0000
  O2     O2        0.421718269604348    0.209494649491218    0.366941443791199  0.0000
  O3     O3        0.974822131464917    0.010662907493724    0.476838002341661  0.0000
  O2     O2        0.503463249563181    0.999261941567119    0.513745858010844  0.0000
  O3     O3        0.016405563193690    0.038978602109562    0.217711474082219  0.0000
  O2     O2        0.520755410448727    0.977037146085251    0.266821399345079  0.0000
  O3     O3        0.029107957550346    0.997873550007153    0.708495698361753  0.0000
  O2     O2        0.495166096557018    0.984501840171486    0.760355283790662  0.0000
  O3     O3        0.589398231343288    0.225866761717122    0.133470951377303  0.0000
  O2     O2        0.911344161418246    0.830579102946271    0.113045315142678  0.0000
  O2     O2        0.413985396872180    0.207315264108317    0.898970916995727  0.0000
  O3     O3        0.100514896964208    0.791580932688954    0.898630212172260  0.0000
  O2     O2        0.380513296984922    0.867056760695551    0.896980951015410  0.0000
  O3     O3        0.135061047020470    0.157692313299776    0.878448022527175  0.0000
  O2     O2        0.638938751606449    0.905794422333856    0.116022033816605  0.0000
  O2     O2        0.887451266858460    0.174313263924822    0.127331914515516  0.0000
  O2     O2        0.505206585622900    0.975813052626511    0.014216859316510  0.0000
  O3     O3        0.989047022904152    0.053587092494821    0.967635984669842  0.0000
  O3     O3        0.144308802322309    0.493548033746526    0.306822281056654  0.0000
  O2     O2        0.371833812143032    0.532060056789089    0.320553069560648  0.0000
  O2     O2        0.866065639615741    0.484315585759811    0.702717085464945  0.0000
  O2     O2        0.641144996303660    0.518656402932329    0.708053140795859  0.0000
  O3     O3        0.273122376681378    0.269140415170349    0.331733313890582  0.0000
  O2     O2        0.250494662605308    0.742732846422473    0.329428367067595  0.0000
  O2     O2        0.746997682334190    0.266914024825175    0.689712718045025  0.0000
  O2     O2        0.759691282864507    0.734405819628419    0.686520159457152  0.0000
  O3     O3        0.165796623770968    0.210359344268356    0.127474049654951  0.0000
  O2     O2        0.349795561688388    0.770917159328272    0.137994136763213  0.0000
  O2     O2        0.837514731671915    0.258596039299464    0.891050703374040  0.0000
  O2     O2        0.662333855274754    0.779341533013877    0.878300449913349  0.0000
  O2     O2        0.865559788372614    0.742221673770972    0.876885154238391  0.0000
  O3     O3        0.646139356224261    0.272984871412701    0.884231329288689  0.0000
  O2     O2        0.146652602750531    0.752794814169623    0.139788096196495  0.0000
  O2     O2        0.369843020264449    0.287265780829622    0.135882918337825  0.0000
  O3     O3        0.634411568989751    0.562062745722065    0.065095662755682  0.0000
  O2     O2        0.875438089741181    0.504379468539192    0.062646870223978  0.0000
  O2     O2        0.374304477004141    0.531886699209054    0.954972428294646  0.0000
  O2     O2        0.142702378440534    0.480613068605217    0.978232362926352  0.0000
  O3     O3        0.750366476058093    0.309173005986426    0.095856131872449  0.0000
  O2     O2        0.765070977122108    0.739730751763904    0.067924391476305  0.0000
  O2     O2        0.267762702312211    0.285387029355813    0.946081834177953  0.0000
  O2     O2        0.247427380829431    0.729579119155374    0.947951179689280  0.0000
