data_c00468.vasp
_audit_creation_method             Generated by GULP
_audit_author_name                 Salvador R. G. Balestra
_symmetry_space_group_name_H-M     'P 1             '
_symmetry_Int_Tables_number        1

loop_
_symmetry_equiv_pos_site_id
_symmetry_equiv_pos_as_xyz
_cell_length_a                       17.2516
_cell_length_b                        7.6371
_cell_length_c                       10.1444
_cell_angle_alpha                   90.2520
_cell_angle_beta                    89.4273
_cell_angle_gamma                   90.7231

loop_
_atom_site_label
_atom_site_type_symbol
_atom_site_fract_x
_atom_site_fract_y
_atom_site_fract_z
_atom_site_charge
  Ge     Ge        0.052090000000021    0.000000000000000    0.372269999999958  0.0000
  Ge     Ge        0.058608121113255    0.014689187160697    0.893182333140611  0.0000
  Ge     Ge        0.665213683312990    0.715785816999113    0.702886462487197  0.0000
  Ge     Ge        0.358211899633662    0.348402622449259    0.954946819442456  0.0000
  Si     Si        0.450876615453257    0.025512845749957    0.370222738921820  0.0000
  Si     Si        0.952401350302678    0.006385318643167    0.637206282433704  0.0000
  Si     Si        0.551769390473660    0.002600081747701    0.623717688492177  0.0000
  Si     Si        0.561542290487164    0.016633834736317    0.125808834708249  0.0000
  Si     Si        0.943308835901216    0.019571250907004    0.130989894588748  0.0000
  Si     Si        0.453032083336812    0.030024315041095    0.880677229089276  0.0000
  Si     Si        0.173243488585473    0.291355894874001    0.261294141161094  0.0000
  Si     Si        0.337485617847498    0.730772916883189    0.276977421446375  0.0000
  Si     Si        0.839639132185277    0.296331850628185    0.711207087482964  0.0000
  Si     Si        0.846493990626308    0.697272783005854    0.699489179796720  0.0000
  Si     Si        0.658869890290311    0.305385090355333    0.714453888834841  0.0000
  Si     Si        0.159428352405286    0.698512540093711    0.272992784947983  0.0000
  Si     Si        0.350612764132207    0.328466826643711    0.270371255789590  0.0000
  Si     Si        0.659098840625733    0.324109054436927    0.020174870819962  0.0000
  Si     Si        0.845766099977332    0.708503052203023    0.010943191077908  0.0000
  Si     Si        0.159366214630840    0.702759757118718    0.968999267873697  0.0000
  Si     Si        0.338383823683637    0.747517563847631    0.967207319537937  0.0000
  Si     Si        0.176868351668356    0.304567398679428    0.955148813149878  0.0000
  Si     Si        0.667842758857152    0.727602639350708    0.016912795238534  0.0000
  Si     Si        0.838830676732156    0.310522847749487    0.018985688419208  0.0000
  O3     O3        0.118313156303995    0.166247046290277    0.344709145403507  0.0000
  O2     O2        0.389269794129232    0.865681406221381    0.360673336390994  0.0000
  O2     O2        0.888997963630750    0.161147429597472    0.624233494175018  0.0000
  O3     O3        0.607189371802654    0.838823608902378    0.603696778189768  0.0000
  O2     O2        0.908396195218971    0.818092981353162    0.621028766737908  0.0000
  O2     O2        0.606258012880558    0.175368919003448    0.628866287396131  0.0000
  O3     O3        0.098510457459879    0.801212829403158    0.361085539885899  0.0000
  O2     O2        0.408041433354052    0.209950719981620    0.354935745302673  0.0000
  O3     O3        0.021045752198988    0.023537744186827    0.533673576871327  0.0000
  O2     O2        0.487464106237194    0.022511451701776    0.513821480075794  0.0000
  O3     O3        0.968188049359566    0.009008709734671    0.281522601152400  0.0000
  O2     O2        0.521686525538810    0.004379018454354    0.267961416282268  0.0000
  O3     O3        0.985930213614513    0.024125294794200    0.782782940674138  0.0000
  O2     O2        0.506755585969835    0.971002371439450    0.760978134900310  0.0000
  O2     O2        0.605658010825363    0.204226586118828    0.114262893477548  0.0000
  O2     O2        0.904729949616460    0.835684295729208    0.085488073417948  0.0000
  O3     O3        0.425270908708023    0.227850839520337    0.867322263340976  0.0000
  O3     O3        0.102859647642959    0.813116177006140    0.881289366767750  0.0000
  O2     O2        0.375689228572985    0.908342399654442    0.887172798875839  0.0000
  O3     O3        0.127780648275305    0.175869401490243    0.865007435514011  0.0000
  O2     O2        0.621211697213537    0.856983458970463    0.112799166348891  0.0000
  O2     O2        0.884386755389922    0.179323550837834    0.111391470662941  0.0000
  O2     O2        0.496870944275830    0.996630736397253    0.016090752040801  0.0000
  O3     O3        0.021137816386041    0.052839027995813    0.048674736727229  0.0000
  O2     O2        0.145251289914339    0.490547387867255    0.282866517660660  0.0000
  O2     O2        0.366116385052496    0.533463755252871    0.303264486422230  0.0000
  O2     O2        0.866234739238653    0.493485332772585    0.673796125758376  0.0000
  O3     O3        0.636440089097316    0.501023359935953    0.682919779947599  0.0000
  O2     O2        0.262112810012251    0.277069365657379    0.308491927786696  0.0000
  O2     O2        0.247150968180394    0.747054994751503    0.317986935911940  0.0000
  O2     O2        0.748943649678095    0.270879456158013    0.679583223552584  0.0000
  O3     O3        0.760672704574248    0.737038578394941    0.652585370998886  0.0000
  O2     O2        0.171904479455115    0.238513295644199    0.107048496435069  0.0000
  O2     O2        0.346881626037762    0.776934710305244    0.123672871708836  0.0000
  O2     O2        0.852944182849695    0.261314641198189    0.866224545943869  0.0000
  O3     O3        0.657329756481879    0.780028751119224    0.865994557293768  0.0000
  O2     O2        0.852025156948296    0.739845093742104    0.855093135750822  0.0000
  O2     O2        0.643740203829729    0.266612344592428    0.869535441542069  0.0000
  O2     O2        0.146759305447850    0.759968491285425    0.121961117148741  0.0000
  O3     O3        0.367407206128032    0.291515240433674    0.118144514288581  0.0000
  O2     O2        0.637660222178050    0.527709031493331    0.039117067333682  0.0000
  O2     O2        0.868485768920150    0.509098156984968    0.045327124264702  0.0000
  O3     O3        0.379050948486015    0.566886341127510    0.929349422979151  0.0000
  O2     O2        0.140722695876055    0.498288126755707    0.948376354800549  0.0000
  O2     O2        0.748339260806468    0.294210659648926    0.055670728240687  0.0000
  O2     O2        0.757913085092344    0.744081730292912    0.057063441218668  0.0000
  O3     O3        0.264793041131139    0.307123400769486    0.905347667907265  0.0000
  O2     O2        0.248506728761476    0.739389677091459    0.928221867067081  0.0000
