data_c00478.vasp
_audit_creation_method             Generated by GULP
_audit_author_name                 Salvador R. G. Balestra
_symmetry_space_group_name_H-M     'P 1             '
_symmetry_Int_Tables_number        1

loop_
_symmetry_equiv_pos_site_id
_symmetry_equiv_pos_as_xyz
_cell_length_a                       17.1160
_cell_length_b                        7.6091
_cell_length_c                       10.3145
_cell_angle_alpha                   89.5724
_cell_angle_beta                    90.3022
_cell_angle_gamma                   89.6530

loop_
_atom_site_label
_atom_site_type_symbol
_atom_site_fract_x
_atom_site_fract_y
_atom_site_fract_z
_atom_site_charge
  Ge     Ge        0.052090000000021    0.000000000000000    0.372269999999958  0.0000
  Ge     Ge        0.058289987821782    0.008121884720993    0.885852909843109  0.0000
  Ge     Ge        0.673848477297571    0.266882726523271    0.022133637658977  0.0000
  Ge     Ge        0.156317463106382    0.331091828015742    0.966459798720539  0.0000
  Si     Si        0.453443255553730    0.976889382532285    0.367971042853793  0.0000
  Si     Si        0.949645280196123    0.993876138776704    0.633348741023366  0.0000
  Si     Si        0.551981038876081    0.987528607728299    0.627396824260043  0.0000
  Si     Si        0.564295950871214    0.983796817643351    0.123036020467209  0.0000
  Si     Si        0.947910732246018    0.989189821100222    0.121894813460782  0.0000
  Si     Si        0.453643353671586    0.997402529922202    0.884151738248480  0.0000
  Si     Si        0.158540303892756    0.303824158917710    0.270193304986273  0.0000
  Si     Si        0.352770833890183    0.671742313104225    0.284930142451304  0.0000
  Si     Si        0.846584996540987    0.305655072558697    0.707625163396135  0.0000
  Si     Si        0.654908747447512    0.679174036448083    0.715922704456819  0.0000
  Si     Si        0.834813078087801    0.706854792273651    0.707990985240984  0.0000
  Si     Si        0.667837282876402    0.272317030647565    0.714030480775861  0.0000
  Si     Si        0.173990530737020    0.713943437713147    0.273405278293932  0.0000
  Si     Si        0.337589521877487    0.270510529658932    0.275866426001621  0.0000
  Si     Si        0.837498954624026    0.704748454698337    0.011100069549781  0.0000
  Si     Si        0.339635804025150    0.285890855610157    0.970962130572207  0.0000
  Si     Si        0.179612755916369    0.736266251217265    0.974308048482970  0.0000
  Si     Si        0.359614802138970    0.680258894396591    0.982946895635690  0.0000
  Si     Si        0.655895549662792    0.671440597231127    0.016348842971464  0.0000
  Si     Si        0.855804306133604    0.308307217565085    0.013033491434946  0.0000
  O3     O3        0.098300338747055    0.199950739658757    0.358660815788566  0.0000
  O2     O2        0.410577910244418    0.788319675284905    0.372018274823315  0.0000
  O2     O2        0.906523561598072    0.184528988287917    0.628348207247875  0.0000
  O2     O2        0.596068585346341    0.798956269524120    0.631344489190158  0.0000
  O2     O2        0.883602096316116    0.842307388627450    0.620605832571233  0.0000
  O2     O2        0.615130386698731    0.144191374372128    0.627431779074928  0.0000
  O3     O3        0.119768190704475    0.832006883890514    0.361461716295757  0.0000
  O2     O2        0.388631858208346    0.130208997595019    0.355934897461318  0.0000
  O3     O3        0.014730805795810    0.984903660612774    0.526022401419286  0.0000
  O2     O2        0.501978526534893    0.002512533734746    0.497707077283921  0.0000
  O3     O3        0.972562441150954    0.981543347108301    0.270486647897782  0.0000
  O2     O2        0.512726028212864    0.987239008393359    0.249630741533456  0.0000
  O3     O3        0.992027641344060    0.958368582780369    0.769503133345420  0.0000
  O2     O2        0.492919118573051    0.008237808407452    0.745403412735641  0.0000
  O3     O3        0.632726014744045    0.124267511674178    0.130662208904012  0.0000
  O2     O2        0.877863212360686    0.851946105219873    0.097538168101841  0.0000
  O2     O2        0.385691779914672    0.143405432071746    0.887108292715207  0.0000
  O3     O3        0.143581223113327    0.882298299723819    0.882031384571782  0.0000
  O2     O2        0.418869492892938    0.802654394764101    0.904358369933507  0.0000
  O1     O1        0.089850492052026    0.220178474872383    0.874768550583914  0.0000
  O2     O2        0.601655674229827    0.790612295068840    0.106406267580296  0.0000
  O2     O2        0.921288906475016    0.188232096336094    0.082170989108651  0.0000
  O2     O2        0.515390818795932    0.043805566276670    0.995961702358841  0.0000
  O3     O3        0.020812726760209    0.942685529407672    0.034099184019791  0.0000
  O2     O2        0.144625381716352    0.513121462463206    0.278879903161134  0.0000
  O2     O2        0.368953115853397    0.465269891472325    0.309470706007115  0.0000
  O2     O2        0.864935863536954    0.509615069936010    0.677625028017095  0.0000
  O2     O2        0.637368074675548    0.473030769581468    0.696751210231178  0.0000
  O2     O2        0.247022301025856    0.255032834190278    0.316159426173964  0.0000
  O2     O2        0.263839182800219    0.719343259472104    0.322053019428216  0.0000
  O2     O2        0.757808479594995    0.261254361979828    0.667126056641122  0.0000
  O2     O2        0.743248777053357    0.722063669216927    0.672566612849309  0.0000
  O3     O3        0.144845805534846    0.248310841342106    0.122470885582184  0.0000
  O2     O2        0.369380503462240    0.720539229116809    0.135250206441741  0.0000
  O2     O2        0.858193991026289    0.266902959611051    0.859961296158317  0.0000
  O2     O2        0.642764144469961    0.727989299692888    0.866304275413428  0.0000
  O2     O2        0.846037521422807    0.752386384277160    0.859447858757022  0.0000
  O3     O3        0.663937373441308    0.208572751553051    0.861848199374345  0.0000
  O2     O2        0.170366578166914    0.786526789836436    0.126166563634674  0.0000
  O2     O2        0.343241579957013    0.233170838274890    0.122949338391703  0.0000
  O3     O3        0.633056382650278    0.472802828990297    0.040683904558113  0.0000
  O2     O2        0.876539154979568    0.513305360052051    0.037810030905449  0.0000
  O2     O2        0.379844533800827    0.477348997080580    0.953124229137274  0.0000
  O3     O3        0.137153389868370    0.551343821338031    0.951413834124453  0.0000
  O3     O3        0.771107511296795    0.267691122354581    0.066332297754216  0.0000
  O2     O2        0.747045959030001    0.698663196171103    0.051012206506810  0.0000
  O3     O3        0.251855328712554    0.291013853531208    0.921045719445778  0.0000
  O2     O2        0.270952006792277    0.717187982621501    0.939675563598912  0.0000
