data_c00469.vasp
_audit_creation_method             Generated by GULP
_audit_author_name                 Salvador R. G. Balestra
_symmetry_space_group_name_H-M     'P 1             '
_symmetry_Int_Tables_number        1

loop_
_symmetry_equiv_pos_site_id
_symmetry_equiv_pos_as_xyz
_cell_length_a                       17.2176
_cell_length_b                        7.6264
_cell_length_c                       10.2018
_cell_angle_alpha                   91.0451
_cell_angle_beta                    89.8218
_cell_angle_gamma                   90.6067

loop_
_atom_site_label
_atom_site_type_symbol
_atom_site_fract_x
_atom_site_fract_y
_atom_site_fract_z
_atom_site_charge
  Ge     Ge        0.052090000000021    0.000000000000000    0.372269999999958  0.0000
  Ge     Ge        0.055254417018071    0.984049012566215    0.887607380642243  0.0000
  Ge     Ge        0.663638731499477    0.717826877192338    0.707082362777320  0.0000
  Ge     Ge        0.154540398803189    0.664067790595582    0.959311209570922  0.0000
  Si     Si        0.451168803642440    0.024280840145040    0.367055697039632  0.0000
  Si     Si        0.949978878577914    0.002931466833060    0.634431238917149  0.0000
  Si     Si        0.548582435075109    0.002396004170191    0.624124552092891  0.0000
  Si     Si        0.561241289708724    0.010973957788365    0.124831880199537  0.0000
  Si     Si        0.943452698912780    0.011889994750795    0.128150370533539  0.0000
  Si     Si        0.449660305008965    0.001099447139176    0.884341085939358  0.0000
  Si     Si        0.173118410466305    0.286064111524743    0.270773334485358  0.0000
  Si     Si        0.335673074945583    0.727822988208434    0.267888778492640  0.0000
  Si     Si        0.835538848894881    0.290347738416169    0.707661750957346  0.0000
  Si     Si        0.846318898863955    0.692949282032254    0.704866522555969  0.0000
  Si     Si        0.655355972529721    0.306895035798362    0.710355262695654  0.0000
  Si     Si        0.158461533427001    0.695535174826538    0.267501643487491  0.0000
  Si     Si        0.351105747078440    0.327361318585896    0.274771681193789  0.0000
  Si     Si        0.656770269238756    0.319658802205967    0.015716206327232  0.0000
  Si     Si        0.846893370298078    0.697512347733804    0.013131756617086  0.0000
  Si     Si        0.355372842613696    0.318467323070946    0.968991173525097  0.0000
  Si     Si        0.335836641291130    0.710065191220062    0.958613333090284  0.0000
  Si     Si        0.176280794262335    0.261072142990160    0.968121447064433  0.0000
  Si     Si        0.667719384440156    0.722972698196679    0.018848452328298  0.0000
  Si     Si        0.836098722288798    0.298635051207973    0.014448054033482  0.0000
  O3     O3        0.119181891984639    0.168613427323765    0.360245886894216  0.0000
  O2     O2        0.388361919509830    0.869991376709227    0.343387454109442  0.0000
  O2     O2        0.884836430528367    0.154249786772774    0.619993791537680  0.0000
  O3     O3        0.607205702158459    0.842588695206298    0.607947158275033  0.0000
  O2     O2        0.907973236294207    0.811246977120646    0.625895734425594  0.0000
  O2     O2        0.600043165869710    0.180074811525681    0.625007858377796  0.0000
  O3     O3        0.097764030169631    0.800799384013788    0.355518653320018  0.0000
  O2     O2        0.409863520632776    0.212540446908683    0.358698963001095  0.0000
  O3     O3        0.017841136208450    0.013830884698770    0.530813892278753  0.0000
  O2     O2        0.484648169519079    0.007189622033213    0.511814463837744  0.0000
  O3     O3        0.969964479277858    0.018031157617402    0.277463647437114  0.0000
  O2     O2        0.523225614675838    0.009380935619697    0.267635394768702  0.0000
  O3     O3        0.987322849754089    0.037082002597131    0.776009299891974  0.0000
  O2     O2        0.504920194752018    0.977075297575524    0.761270113913726  0.0000
  O2     O2        0.601469316152945    0.200732038244298    0.104828889813799  0.0000
  O2     O2        0.905748135431692    0.821143697600341    0.093304484798258  0.0000
  O2     O2        0.411921528729231    0.194039488173557    0.884649440581320  0.0000
  O1     O1        0.087276435311281    0.773589139961939    0.870694430263141  0.0000
  O2     O2        0.382872051590811    0.852659064192220    0.876024635127767  0.0000
  O3     O3        0.139366424465553    0.111881079466644    0.878520849500241  0.0000
  O2     O2        0.623919976622573    0.855583518504850    0.117269680066739  0.0000
  O2     O2        0.881833459322850    0.165096347746857    0.103341889241293  0.0000
  O2     O2        0.496255342017447    0.970845216968687    0.017041487171244  0.0000
  O3     O3        0.019208193275490    0.037454544684380    0.041359029805107  0.0000
  O2     O2        0.144700582197826    0.486730418041289    0.278474789219872  0.0000
  O2     O2        0.366953363565109    0.534024593428027    0.300835906258528  0.0000
  O2     O2        0.863457937027686    0.487872303067125    0.675829065222849  0.0000
  O3     O3        0.634282685039767    0.503783606178955    0.681812044794498  0.0000
  O2     O2        0.263022587666777    0.278989430909221    0.315726215005963  0.0000
  O2     O2        0.246334898903667    0.745252343638004    0.314299395248084  0.0000
  O2     O2        0.744904292430626    0.268532096386579    0.672110398422431  0.0000
  O3     O3        0.760082264480059    0.738616208482901    0.662828124327448  0.0000
  O2     O2        0.167836823124834    0.213076822256841    0.121741735745115  0.0000
  O2     O2        0.337492090403131    0.760282407354393    0.112899330581293  0.0000
  O2     O2        0.847052223183330    0.250908492353307    0.861287493418752  0.0000
  O3     O3        0.654801786792953    0.778505705931949    0.870321711064600  0.0000
  O2     O2        0.857560934020627    0.734987958311073    0.859568572128128  0.0000
  O2     O2        0.642833761398104    0.266791785347777    0.864217274423826  0.0000
  O3     O3        0.145684803826201    0.747342304196012    0.117922736530210  0.0000
  O2     O2        0.366461565963849    0.279553147335797    0.122463026297428  0.0000
  O2     O2        0.636649463886778    0.524008414032108    0.039104112558813  0.0000
  O2     O2        0.867877544887295    0.496075290450356    0.042733135644511  0.0000
  O2     O2        0.376259727323706    0.519909475957975    0.937901704351592  0.0000
  O3     O3        0.133824519641198    0.444401287520165    0.945445719330724  0.0000
  O2     O2        0.745807144219619    0.285626816223074    0.053572860133665  0.0000
  O2     O2        0.758659012766299    0.735106163960597    0.054788161103794  0.0000
  O2     O2        0.266550644435228    0.282673206640932    0.929624346433362  0.0000
  O3     O3        0.248831690420607    0.703865638054858    0.907688248866871  0.0000
