data_c00409.vasp
_audit_creation_method             Generated by GULP
_audit_author_name                 Salvador R. G. Balestra
_symmetry_space_group_name_H-M     'P 1             '
_symmetry_Int_Tables_number        1

loop_
_symmetry_equiv_pos_site_id
_symmetry_equiv_pos_as_xyz
_cell_length_a                       17.3274
_cell_length_b                        7.6628
_cell_length_c                       10.0706
_cell_angle_alpha                   90.3855
_cell_angle_beta                    90.4824
_cell_angle_gamma                   90.1952

loop_
_atom_site_label
_atom_site_type_symbol
_atom_site_fract_x
_atom_site_fract_y
_atom_site_fract_z
_atom_site_charge
  Ge     Ge        0.052090000000021    0.000000000000000    0.372269999999958  0.0000
  Ge     Ge        0.435883220749365    0.010237746452711    0.891699853250095  0.0000
  Ge     Ge        0.659649779961934    0.712108867499329    0.710742031207111  0.0000
  Ge     Ge        0.828899724631593    0.300846612492705    0.043988274608136  0.0000
  Si     Si        0.448052801436433    0.017932809180467    0.379482290073106  0.0000
  Si     Si        0.945062950997201    0.997278350547048    0.627728872339150  0.0000
  Si     Si        0.546555701352204    0.004385862703618    0.637287893542018  0.0000
  Si     Si        0.550589631288382    0.010201265183553    0.134619032296915  0.0000
  Si     Si        0.939804148802617    0.009303811099610    0.118212032047662  0.0000
  Si     Si        0.047653408057006    0.005992141271285    0.878378248412146  0.0000
  Si     Si        0.166092054248292    0.296067253050627    0.293874574167441  0.0000
  Si     Si        0.337071704687819    0.720869509091399    0.278057435479403  0.0000
  Si     Si        0.833168599185491    0.290073851136093    0.727207205896109  0.0000
  Si     Si        0.840387976453025    0.694208511092206    0.722014893739623  0.0000
  Si     Si        0.656192187532144    0.305191579664488    0.716827721604763  0.0000
  Si     Si        0.159874795677905    0.698395064977680    0.299200000313072  0.0000
  Si     Si        0.344174308700316    0.317665880860183    0.275692448800322  0.0000
  Si     Si        0.649284358962034    0.319449023037490    0.029761134367905  0.0000
  Si     Si        0.836470323580326    0.702809727271001    0.033379173722306  0.0000
  Si     Si        0.334511981998859    0.322866177264088    0.967470658010376  0.0000
  Si     Si        0.145049504870507    0.698861399358156    0.990321087087518  0.0000
  Si     Si        0.322473615083431    0.720922495125816    0.968907368001250  0.0000
  Si     Si        0.155909807238045    0.298895821402204    0.985430602018377  0.0000
  Si     Si        0.657779481251097    0.719388670019051    0.026742222009950  0.0000
  O3     O3        0.116043157090876    0.173542185905688    0.385597891049533  0.0000
  O2     O2        0.392516852352406    0.850699646235127    0.359590285676863  0.0000
  O2     O2        0.886973184407619    0.158881021884923    0.645717281911156  0.0000
  O3     O3        0.601075613433355    0.839392498042812    0.613489011808196  0.0000
  O2     O2        0.901516597259434    0.812364230956689    0.644283756791628  0.0000
  O2     O2        0.600943240108247    0.175525480948642    0.634867109475362  0.0000
  O3     O3        0.106478778139020    0.812970882485952    0.392045909516740  0.0000
  O2     O2        0.401885545719688    0.197616528286772    0.358918270842314  0.0000
  O3     O3        0.977379263019625    0.009802591883468    0.481219311347260  0.0000
  O2     O2        0.477995977502195    0.017852252695076    0.530284105781984  0.0000
  O3     O3        0.009708831876734    0.999451971965430    0.217874478844740  0.0000
  O2     O2        0.523026215958578    0.009738614032265    0.286821729574475  0.0000
  O2     O2        0.018874197911300    0.007438173982225    0.726542013648865  0.0000
  O3     O3        0.507463444399375    0.986515975064136    0.779565772042478  0.0000
  O2     O2        0.586646519033365    0.199488724397915    0.101633650690976  0.0000
  O2     O2        0.887845731770831    0.834332118814171    0.120756909040624  0.0000
  O3     O3        0.388961066702608    0.208272670548668    0.876399004497754  0.0000
  O2     O2        0.086119460957469    0.818820456307686    0.908926009263504  0.0000
  O3     O3        0.365870233974383    0.849890466001143    0.873557341467505  0.0000
  O2     O2        0.108049305122804    0.164339360543357    0.895170414018241  0.0000
  O2     O2        0.612575468273450    0.855658012153085    0.118516868387608  0.0000
  O3     O3        0.883353411439103    0.170265781792336    0.145307696857633  0.0000
  O3     O3        0.476380586291260    0.976117403368472    0.045313812412354  0.0000
  O2     O2        0.974303822116298    0.037863383479027    0.970859874071018  0.0000
  O2     O2        0.143150153979560    0.495388457532079    0.324420242216821  0.0000
  O2     O2        0.363579464049555    0.521275291430152    0.302621532393458  0.0000
  O2     O2        0.861359904954024    0.489510175233480    0.704809766183232  0.0000
  O3     O3        0.630827018690437    0.499458977607216    0.685625531209747  0.0000
  O2     O2        0.257305797600263    0.273026802621903    0.320503417461986  0.0000
  O2     O2        0.249584804542099    0.743238607361232    0.328452476453936  0.0000
  O2     O2        0.744875813507922    0.272483674598731    0.674422987601854  0.0000
  O3     O3        0.755346953474859    0.730921830364743    0.667000895920638  0.0000
  O2     O2        0.147599397493813    0.248004134374072    0.139749020268156  0.0000
  O2     O2        0.340123890394129    0.768432884496237    0.122949991856117  0.0000
  O3     O3        0.835908381258137    0.239058032807133    0.880053244589334  0.0000
  O3     O3        0.649121062017006    0.774322406312116    0.874813190495873  0.0000
  O2     O2        0.843923057527133    0.744643066658087    0.877395608408619  0.0000
  O2     O2        0.649633588672409    0.269827929208036    0.874166068421267  0.0000
  O2     O2        0.139191863766759    0.744839901392406    0.146118624094581  0.0000
  O2     O2        0.354147845750959    0.273646144942775    0.120235723463666  0.0000
  O2     O2        0.625060801670346    0.522707113648867    0.046222691111472  0.0000
  O3     O3        0.863794842352153    0.510017523044183    0.064711932725202  0.0000
  O2     O2        0.351716786665899    0.525055772238299    0.939963486476213  0.0000
  O2     O2        0.124170184820645    0.495343467291849    0.964019493293042  0.0000
  O3     O3        0.733343608610123    0.288899427736705    0.090519516396221  0.0000
  O2     O2        0.746979823053781    0.723713753757469    0.072471341925108  0.0000
  O2     O2        0.244312186897189    0.284268053241910    0.940293894312460  0.0000
  O2     O2        0.231243428033343    0.735605852462158    0.940434800481046  0.0000
