data_c00476.vasp
_audit_creation_method             Generated by GULP
_audit_author_name                 Salvador R. G. Balestra
_symmetry_space_group_name_H-M     'P 1             '
_symmetry_Int_Tables_number        1

loop_
_symmetry_equiv_pos_site_id
_symmetry_equiv_pos_as_xyz
_cell_length_a                       17.1771
_cell_length_b                        7.6428
_cell_length_c                       10.2271
_cell_angle_alpha                   90.0878
_cell_angle_beta                    90.0252
_cell_angle_gamma                   89.7836

loop_
_atom_site_label
_atom_site_type_symbol
_atom_site_fract_x
_atom_site_fract_y
_atom_site_fract_z
_atom_site_charge
  Ge     Ge        0.052090000000021    0.000000000000000    0.372269999999958  0.0000
  Ge     Ge        0.060381189424289    0.000503277882258    0.882230855110911  0.0000
  Ge     Ge        0.673427108228057    0.277967810250368    0.024196696515292  0.0000
  Ge     Ge        0.179563141787658    0.715234917172879    0.966469961968837  0.0000
  Si     Si        0.452180246760335    0.980529374731584    0.365157847905004  0.0000
  Si     Si        0.947926818990788    0.001278564829415    0.632376920852535  0.0000
  Si     Si        0.552120422178190    0.990223253877275    0.624117335714423  0.0000
  Si     Si        0.564202934864158    0.993289693452063    0.119572723383187  0.0000
  Si     Si        0.949386803136316    0.992127603256022    0.119832581382246  0.0000
  Si     Si        0.454388125719283    0.990569293764370    0.881333141779894  0.0000
  Si     Si        0.160310188874245    0.301092524775213    0.269952079693790  0.0000
  Si     Si        0.349129902582853    0.673995611562257    0.285796116620306  0.0000
  Si     Si        0.842891565535536    0.308037768471725    0.701194792337043  0.0000
  Si     Si        0.656781434853159    0.687195921876644    0.716086386588626  0.0000
  Si     Si        0.836500220328352    0.706818559168248    0.705561734543388  0.0000
  Si     Si        0.665216713534757    0.281795063103189    0.713148162929969  0.0000
  Si     Si        0.172028029568782    0.710997889740132    0.273364777431785  0.0000
  Si     Si        0.339578087417101    0.274612634332569    0.281942213393159  0.0000
  Si     Si        0.840134843887204    0.702936066471981    0.011370782991027  0.0000
  Si     Si        0.342984438873106    0.279101835894289    0.976525752326164  0.0000
  Si     Si        0.360212025727535    0.673316880429483    0.976997538995812  0.0000
  Si     Si        0.161460743866613    0.309572913637094    0.970588466744457  0.0000
  Si     Si        0.658654743994780    0.681528586483081    0.018934663718446  0.0000
  Si     Si        0.854579192222554    0.307234877630857    0.010139174165346  0.0000
  O3     O3        0.101175649031040    0.196024438819344    0.358491596043745  0.0000
  O2     O2        0.407372548925854    0.795553670192003    0.368154022621763  0.0000
  O2     O2        0.900121721193750    0.183931573742453    0.618189737035544  0.0000
  O2     O2        0.599815966163064    0.808168037218997    0.631125230441959  0.0000
  O2     O2        0.886855703662480    0.840249497338866    0.619404638097181  0.0000
  O2     O2        0.610332602575080    0.154868912299131    0.628903883459636  0.0000
  O3     O3        0.115253463669426    0.825197050373621    0.361794380523212  0.0000
  O2     O2        0.389395684628278    0.138067353806088    0.366707142805057  0.0000
  O3     O3        0.016013176636850    0.990288426001812    0.529213870989632  0.0000
  O2     O2        0.507769039171266    0.996635653506313    0.488085871066463  0.0000
  O3     O3        0.972353742053192    0.992024234590318    0.270616218645498  0.0000
  O2     O2        0.504672434329261    0.992405778811146    0.237198265899268  0.0000
  O3     O3        0.985310489727570    0.991752568605769    0.775253555709989  0.0000
  O2     O2        0.487615782590583    0.001087237530327    0.736497567398721  0.0000
  O3     O3        0.628577454968580    0.141253802203562    0.133245816053315  0.0000
  O2     O2        0.882483041076596    0.847485215219514    0.098072705117467  0.0000
  O2     O2        0.384100565932194    0.130248020620948    0.890550875832155  0.0000
  O1     O1        0.131694920249902    0.846748375733232    0.860179624828594  0.0000
  O2     O2        0.425056789305873    0.793761743092797    0.909346753306282  0.0000
  O3     O3        0.106552676398239    0.200810938696750    0.876478264218494  0.0000
  O2     O2        0.606801720257332    0.805408702014812    0.110518237401850  0.0000
  O2     O2        0.920016056044194    0.185230456391591    0.075037190615798  0.0000
  O2     O2        0.520214338153300    0.043509410173984    0.984953688500772  0.0000
  O3     O3        0.024446797853908    0.946165988233778    0.035625862540227  0.0000
  O2     O2        0.145100199431666    0.508583298257834    0.277506333846083  0.0000
  O2     O2        0.367858377026675    0.470935064146628    0.316168835062159  0.0000
  O2     O2        0.863873223179382    0.509634638121948    0.670694002486001  0.0000
  O2     O2        0.636820380153649    0.482813431167081    0.696220418940425  0.0000
  O2     O2        0.248423181406774    0.255725606736312    0.315772353356576  0.0000
  O2     O2        0.260843002522251    0.720249178300393    0.326738627828406  0.0000
  O2     O2        0.753962353889646    0.267488755064903    0.661194736228670  0.0000
  O2     O2        0.745212211001224    0.726952586601823    0.672524008470020  0.0000
  O2     O2        0.148008289828901    0.239888188871328    0.119422129991547  0.0000
  O2     O2        0.359446330458438    0.711004475582028    0.132094160882130  0.0000
  O2     O2        0.853036563665638    0.271688200075101    0.854960236647250  0.0000
  O2     O2        0.645011620272055    0.736633921174309    0.868023911643433  0.0000
  O2     O2        0.849804245691953    0.748227510603222    0.858547564903315  0.0000
  O3     O3        0.662533360364075    0.220706434716050    0.862270602281957  0.0000
  O3     O3        0.170364254619960    0.784527434041615    0.127064905926032  0.0000
  O2     O2        0.352333145426330    0.232373580231198    0.129139966926631  0.0000
  O3     O3        0.634863449123158    0.484772683359083    0.044768775874120  0.0000
  O2     O2        0.876464673323968    0.510508854379184    0.038226142182815  0.0000
  O2     O2        0.381119094501868    0.469167067012770    0.949611339680515  0.0000
  O3     O3        0.139506532931382    0.509645341993461    0.955482662014410  0.0000
  O3     O3        0.770413799674350    0.268299695115078    0.067347224820996  0.0000
  O2     O2        0.749926504587175    0.703607885984367    0.051821800749201  0.0000
  O2     O2        0.252768076955498    0.283987655186618    0.936033523517205  0.0000
  O3     O3        0.276194402454835    0.715635428632754    0.920327667103964  0.0000
