data_c00463.vasp
_audit_creation_method             Generated by GULP
_audit_author_name                 Salvador R. G. Balestra
_symmetry_space_group_name_H-M     'P 1             '
_symmetry_Int_Tables_number        1

loop_
_symmetry_equiv_pos_site_id
_symmetry_equiv_pos_as_xyz
_cell_length_a                       17.2497
_cell_length_b                        7.6551
_cell_length_c                       10.1826
_cell_angle_alpha                   89.7398
_cell_angle_beta                    90.4983
_cell_angle_gamma                   90.1063

loop_
_atom_site_label
_atom_site_type_symbol
_atom_site_fract_x
_atom_site_fract_y
_atom_site_fract_z
_atom_site_charge
  Ge     Ge        0.052090000000021    0.000000000000000    0.372269999999958  0.0000
  Ge     Ge        0.057107436198759    0.006910834197319    0.889778800887739  0.0000
  Ge     Ge        0.835025303413242    0.299118238646803    0.698683364596153  0.0000
  Ge     Ge        0.669061096668618    0.723490984677843    0.022699589641741  0.0000
  Si     Si        0.449949092214731    0.018561225432488    0.356746524446124  0.0000
  Si     Si        0.950554433948957    0.008670730653125    0.631151283532848  0.0000
  Si     Si        0.549045687052021    0.019783081199656    0.617105842106455  0.0000
  Si     Si        0.559096844064463    0.011674423334142    0.109154417149259  0.0000
  Si     Si        0.943898410993359    0.005103641480572    0.126697122494324  0.0000
  Si     Si        0.447818403030660    0.009755420935161    0.868525006362293  0.0000
  Si     Si        0.168471229601437    0.293774423024295    0.266760039799987  0.0000
  Si     Si        0.338837370272354    0.722318341171292    0.273497547504429  0.0000
  Si     Si        0.663656908194343    0.729943820938217    0.710355351916181  0.0000
  Si     Si        0.841597231043795    0.705884942930761    0.703365818090592  0.0000
  Si     Si        0.653355346802660    0.324384375230730    0.706751257219385  0.0000
  Si     Si        0.159894181953535    0.700542882090022    0.265830252615654  0.0000
  Si     Si        0.346499442068617    0.322213313966259    0.277891032597534  0.0000
  Si     Si        0.656723564859056    0.321381076817540    0.013599566778143  0.0000
  Si     Si        0.849418069106013    0.692742590885148    0.013637320533120  0.0000
  Si     Si        0.352205432152586    0.322425867627579    0.970396237208589  0.0000
  Si     Si        0.159659683720767    0.694131408820033    0.962877023167542  0.0000
  Si     Si        0.339138907252784    0.718602039517066    0.966259518256185  0.0000
  Si     Si        0.173657278510245    0.293130231475319    0.963008354365093  0.0000
  Si     Si        0.836445278837325    0.294592938330725    0.011927053537580  0.0000
  O3     O3        0.113577170718900    0.175748288107676    0.353777945333494  0.0000
  O2     O2        0.390348755585280    0.855659097701806    0.358288655205847  0.0000
  O3     O3        0.892961852110568    0.169754423011863    0.604035066543853  0.0000
  O2     O2        0.610568252239785    0.862246493078277    0.626738065264471  0.0000
  O2     O2        0.898110673827629    0.833450944030214    0.624003493916222  0.0000
  O2     O2        0.591489031873159    0.207301625162212    0.627537688923670  0.0000
  O3     O3        0.102295465094086    0.807464373851841    0.354266825155272  0.0000
  O2     O2        0.402056162769057    0.199088989828685    0.365051219869407  0.0000
  O3     O3        0.021104218414415    0.002471117184494    0.532696440095941  0.0000
  O2     O2        0.508883854919691    0.004954164745233    0.476516578694597  0.0000
  O3     O3        0.968913036658137    0.006571590586349    0.277685029381490  0.0000
  O2     O2        0.498979961705450    0.016240766452712    0.225125119487634  0.0000
  O3     O3        0.984815907573084    0.030360901066296    0.777299091222157  0.0000
  O2     O2        0.481924137868079    0.003029599680659    0.723946326666673  0.0000
  O2     O2        0.603782631953513    0.195944813540495    0.101039820231163  0.0000
  O2     O2        0.912693694966673    0.812866294850099    0.085903064773834  0.0000
  O2     O2        0.410806536587182    0.200298323770175    0.891901183172397  0.0000
  O3     O3        0.102156571005487    0.805797088728105    0.874079422639241  0.0000
  O2     O2        0.383285537511204    0.858750414546195    0.877755641073198  0.0000
  O3     O3        0.127496300080544    0.166433967408264    0.868906926738977  0.0000
  O3     O3        0.621258724525545    0.859673569354442    0.127524339322227  0.0000
  O2     O2        0.879270432027771    0.154241856927833    0.104046686634360  0.0000
  O2     O2        0.515411804255964    0.968939293896671    0.972581352494749  0.0000
  O3     O3        0.019565281826363    0.044706010236089    0.043093986670163  0.0000
  O2     O2        0.143799246787254    0.495089105967283    0.283723628517326  0.0000
  O2     O2        0.364239284527223    0.524649586699939    0.309622292964177  0.0000
  O3     O3        0.865037951676486    0.510672773062811    0.671084157208214  0.0000
  O2     O2        0.634490369664846    0.530532208328658    0.690330980094865  0.0000
  O2     O2        0.258012866238302    0.274424449287830    0.312108836626730  0.0000
  O2     O2        0.248447005851336    0.747336235751082    0.306482688025728  0.0000
  O3     O3        0.738437570840398    0.283687396480520    0.654931866722535  0.0000
  O2     O2        0.752470513086306    0.743935613359484    0.661161207126641  0.0000
  O2     O2        0.161349299792414    0.235568612315359    0.114804782018410  0.0000
  O2     O2        0.351885083061895    0.761395015677005    0.119617138408575  0.0000
  O3     O3        0.844920705756322    0.239961611744111    0.861871851234933  0.0000
  O3     O3        0.660435777568112    0.786589690778716    0.860823525167060  0.0000
  O2     O2        0.849357051984335    0.738604069627663    0.859317122603123  0.0000
  O2     O2        0.648006529780352    0.272704808838225    0.860162132086979  0.0000
  O2     O2        0.145299117022050    0.753695071040000    0.113545744309570  0.0000
  O2     O2        0.362604353630883    0.285211944752178    0.124982393325711  0.0000
  O3     O3        0.630956999893640    0.516577499220219    0.040056466025588  0.0000
  O2     O2        0.872481228571944    0.488699772661382    0.033285393118556  0.0000
  O2     O2        0.371668284728386    0.524468378640165    0.937494138062702  0.0000
  O2     O2        0.142192547578215    0.489931822427470    0.943465352781186  0.0000
  O2     O2        0.746718411162242    0.297982932717503    0.053757427351172  0.0000
  O3     O3        0.765218811031292    0.727255096556498    0.070415575856984  0.0000
  O2     O2        0.264279037342759    0.282179773056433    0.927354982610481  0.0000
  O2     O2        0.249005447531048    0.731612015468365    0.927517840979641  0.0000
