data_c00470.vasp
_audit_creation_method             Generated by GULP
_audit_author_name                 Salvador R. G. Balestra
_symmetry_space_group_name_H-M     'P 1             '
_symmetry_Int_Tables_number        1

loop_
_symmetry_equiv_pos_site_id
_symmetry_equiv_pos_as_xyz
_cell_length_a                       17.1789
_cell_length_b                        7.6464
_cell_length_c                       10.1914
_cell_angle_alpha                   90.7021
_cell_angle_beta                    89.6273
_cell_angle_gamma                   90.7155

loop_
_atom_site_label
_atom_site_type_symbol
_atom_site_fract_x
_atom_site_fract_y
_atom_site_fract_z
_atom_site_charge
  Ge     Ge        0.052090000000021    0.000000000000000    0.372269999999958  0.0000
  Ge     Ge        0.058378840261830    0.993926878843710    0.896780131581482  0.0000
  Ge     Ge        0.664975434192501    0.716966028308714    0.702630156260443  0.0000
  Ge     Ge        0.335575064178455    0.731306050867095    0.958703252376040  0.0000
  Si     Si        0.450596936851101    0.028711180890789    0.366250191434838  0.0000
  Si     Si        0.954750929953977    0.007791271946770    0.638815310886495  0.0000
  Si     Si        0.553625881656906    0.008346180655150    0.617957462821291  0.0000
  Si     Si        0.557001740489444    0.005432977840127    0.117075851156867  0.0000
  Si     Si        0.941610823643553    0.015185261491783    0.133061615702909  0.0000
  Si     Si        0.450018309659326    0.016857725558262    0.873784515454658  0.0000
  Si     Si        0.173563398843454    0.288658372928016    0.269123016144696  0.0000
  Si     Si        0.335787723970508    0.736370470385096    0.272200245346021  0.0000
  Si     Si        0.841790910871764    0.298925152100364    0.709618252800882  0.0000
  Si     Si        0.848309901122594    0.700163503894429    0.706744692378626  0.0000
  Si     Si        0.661089311755228    0.307977664253403    0.703948367213698  0.0000
  Si     Si        0.158005604822499    0.692898069720773    0.267462436121335  0.0000
  Si     Si        0.351970222582210    0.333679415075793    0.271351229280793  0.0000
  Si     Si        0.656540444456742    0.314637714069339    0.009934080468327  0.0000
  Si     Si        0.844467228923616    0.702751046290058    0.015421174076991  0.0000
  Si     Si        0.358345583690813    0.333190620816274    0.965266512221816  0.0000
  Si     Si        0.154754730926097    0.674883281586788    0.961150625744214  0.0000
  Si     Si        0.178335310580304    0.279822685601023    0.965435333987990  0.0000
  Si     Si        0.664784514993026    0.717780446616225    0.015098930760282  0.0000
  Si     Si        0.836447440792323    0.303702868342796    0.016433575392587  0.0000
  O3     O3        0.121170241576694    0.163374511965792    0.355789442533287  0.0000
  O2     O2        0.386580485464387    0.873517890522338    0.357302532513534  0.0000
  O2     O2        0.892974962522342    0.165648756306336    0.623513308066402  0.0000
  O3     O3        0.607147189234347    0.839938405776865    0.603985005262550  0.0000
  O2     O2        0.909259396638170    0.820978552766839    0.627884622720881  0.0000
  O2     O2        0.610442733696114    0.177444544685032    0.614103195269280  0.0000
  O3     O3        0.094816645512825    0.799200634770252    0.348037521026007  0.0000
  O2     O2        0.410297327656310    0.217463461039871    0.355241470115655  0.0000
  O3     O3        0.022701393143042    0.014400324426868    0.534033189586829  0.0000
  O2     O2        0.488837542783931    0.019800099659425    0.507954963770259  0.0000
  O3     O3        0.967804416603740    0.020033685377580    0.282786520486079  0.0000
  O2     O2        0.519156754757789    0.005892692268760    0.260269935273553  0.0000
  O3     O3        0.990247094813827    0.033070977648999    0.782221049734685  0.0000
  O2     O2        0.510763429533888    0.998840867413316    0.757429468473936  0.0000
  O2     O2        0.599633701546381    0.192245657123778    0.094576106687411  0.0000
  O2     O2        0.901328017038630    0.828321827260273    0.097658569934460  0.0000
  O2     O2        0.415895912438473    0.212279707393755    0.880408681699338  0.0000
  O3     O3        0.091272075074597    0.781316634989169    0.883428753227117  0.0000
  O3     O3        0.380038260042862    0.879935677433543    0.857756232744139  0.0000
  O3     O3        0.137369949360683    0.135280652446704    0.877255623177271  0.0000
  O2     O2        0.617761038141228    0.846648570235674    0.111330348276555  0.0000
  O2     O2        0.882626720407992    0.172648950506987    0.106988983403708  0.0000
  O2     O2        0.490921977318119    0.967134481570786    0.010098284625972  0.0000
  O3     O3        0.019719617036575    0.038636666903709    0.049633017536819  0.0000
  O2     O2        0.143212465607639    0.486420118511000    0.286535625834316  0.0000
  O2     O2        0.367254714962775    0.540210516345949    0.296311194675810  0.0000
  O2     O2        0.868763350371414    0.497249337583688    0.679097062092884  0.0000
  O3     O3        0.637477613440448    0.502841876634910    0.674584195085356  0.0000
  O2     O2        0.263839031195161    0.283122912969922    0.312315648506755  0.0000
  O2     O2        0.245116659378780    0.745508722931300    0.315596959631433  0.0000
  O2     O2        0.751735066919409    0.275859778382679    0.670402149294166  0.0000
  O3     O3        0.761967305675797    0.741354176114259    0.661396697201531  0.0000
  O2     O2        0.168622795327585    0.225390308172898    0.117716266391213  0.0000
  O3     O3        0.342393596572007    0.789406876790028    0.121776403067667  0.0000
  O2     O2        0.851132921865453    0.258198990389075    0.863792576712412  0.0000
  O3     O3        0.653273915544460    0.773455400445240    0.865964176862512  0.0000
  O2     O2        0.856339695788852    0.741750679608463    0.862009413166699  0.0000
  O2     O2        0.645733186653950    0.265928326667992    0.857242766068541  0.0000
  O2     O2        0.150551849579734    0.738456886536530    0.113718697195250  0.0000
  O2     O2        0.367591211214107    0.289056125584457    0.118871704484974  0.0000
  O2     O2        0.635251726134928    0.517587729010873    0.034483227873333  0.0000
  O2     O2        0.865625861436957    0.502071512652205    0.046218510739822  0.0000
  O3     O3        0.379862449439625    0.530917591361803    0.936851718863387  0.0000
  O2     O2        0.138058792014091    0.467870759056573    0.946039499383690  0.0000
  O2     O2        0.745402184307819    0.283032699049828    0.051409646458206  0.0000
  O2     O2        0.755194706078763    0.736040861167011    0.054527209699923  0.0000
  O2     O2        0.268847797071861    0.295350635385797    0.925748795091113  0.0000
  O3     O3        0.240495659675734    0.719510338568518    0.908690001112323  0.0000
