data_c00404.vasp
_audit_creation_method             Generated by GULP
_audit_author_name                 Salvador R. G. Balestra
_symmetry_space_group_name_H-M     'P 1             '
_symmetry_Int_Tables_number        1

loop_
_symmetry_equiv_pos_site_id
_symmetry_equiv_pos_as_xyz
_cell_length_a                       17.1356
_cell_length_b                        7.5929
_cell_length_c                       10.3177
_cell_angle_alpha                   89.6531
_cell_angle_beta                    89.7176
_cell_angle_gamma                   90.6914

loop_
_atom_site_label
_atom_site_type_symbol
_atom_site_fract_x
_atom_site_fract_y
_atom_site_fract_z
_atom_site_charge
  Ge     Ge        0.052090000000021    0.000000000000000    0.372269999999958  0.0000
  Ge     Ge        0.449830711832119    0.041905588465358    0.875505758397345  0.0000
  Ge     Ge        0.669316814894097    0.732379709579356    0.704972628947113  0.0000
  Ge     Ge        0.354630738138273    0.368998621202774    0.954698967124005  0.0000
  Si     Si        0.452813801168059    0.030341243634092    0.365283567442875  0.0000
  Si     Si        0.955668646179034    0.011504792325289    0.639421287604065  0.0000
  Si     Si        0.552284278410013    0.013243655878869    0.619261878594559  0.0000
  Si     Si        0.558507152509497    0.014653476520040    0.121401246381388  0.0000
  Si     Si        0.941666553304463    0.014406125795137    0.126448418754147  0.0000
  Si     Si        0.056684668662939    0.023416602302033    0.894148265033640  0.0000
  Si     Si        0.175925664963965    0.290822713909972    0.266557488648227  0.0000
  Si     Si        0.335892344602738    0.742037767731594    0.273948211477308  0.0000
  Si     Si        0.837891828505628    0.294134414735962    0.717652231114767  0.0000
  Si     Si        0.851908590467598    0.698707584328350    0.709884070302005  0.0000
  Si     Si        0.656569448197395    0.318812919713550    0.713094140980726  0.0000
  Si     Si        0.156619597905974    0.694807833256551    0.282662972250216  0.0000
  Si     Si        0.353763678526464    0.336532353057434    0.262764902029390  0.0000
  Si     Si        0.653175345433747    0.329534636511469    0.013641671354647  0.0000
  Si     Si        0.847895465978151    0.700165698831706    0.014647010317135  0.0000
  Si     Si        0.150048220804945    0.707184131536490    0.983031034996980  0.0000
  Si     Si        0.329978560706527    0.769513466202204    0.972171943317505  0.0000
  Si     Si        0.172375749613333    0.313016922767808    0.963838645601323  0.0000
  Si     Si        0.668230171827360    0.734295527201338    0.013011764962798  0.0000
  Si     Si        0.833740498641378    0.300793652889857    0.019945374146011  0.0000
  O3     O3        0.125104040336000    0.153150166340607    0.345851803185455  0.0000
  O2     O2        0.387936118951773    0.874787188347761    0.358868051047635  0.0000
  O2     O2        0.887152022871315    0.156932966656219    0.634320057393088  0.0000
  O3     O3        0.614784574860787    0.860349046569764    0.602939180141118  0.0000
  O2     O2        0.915802349442323    0.816799249934046    0.632872796212680  0.0000
  O2     O2        0.599912338141852    0.197425847677839    0.628499976333804  0.0000
  O3     O3        0.095834468420717    0.796026608114880    0.370597540428798  0.0000
  O2     O2        0.413950350224309    0.220372035936043    0.345240625318224  0.0000
  O3     O3        0.015509262963397    0.038167163045020    0.524507547046075  0.0000
  O2     O2        0.489264962735574    0.026194231605643    0.507001801458087  0.0000
  O3     O3        0.973446652656431    0.016256795001042    0.270153196954322  0.0000
  O2     O2        0.523255470873076    0.000816338616949    0.264940671205747  0.0000
  O2     O2        0.000726316203002    0.037072559499092    0.773290344233408  0.0000
  O3     O3        0.504849500314023    0.970269469623177    0.749723176300843  0.0000
  O2     O2        0.594918432900522    0.211433302727975    0.100383657228157  0.0000
  O2     O2        0.905920821568404    0.821319209458163    0.096671502653991  0.0000
  O1     O1        0.422333400655477    0.256805542312002    0.865967686959475  0.0000
  O2     O2        0.093605456395325    0.828836462127925    0.898389084716829  0.0000
  O3     O3        0.361048844616946    0.927842705695179    0.886514366965726  0.0000
  O2     O2        0.123949453665545    0.172223022036275    0.880013116392807  0.0000
  O2     O2        0.624840479758590    0.866467815760687    0.108755210110209  0.0000
  O2     O2        0.875348212934953    0.162175021537609    0.112735775061937  0.0000
  O3     O3        0.493125212242556    0.976692483267827    0.017706806969114  0.0000
  O2     O2        0.011087694906784    0.062084888254572    0.027103351185172  0.0000
  O2     O2        0.143863631034039    0.485747349672879    0.296207697691792  0.0000
  O2     O2        0.368443117909614    0.544180565988819    0.289609339719815  0.0000
  O2     O2        0.867090099412558    0.492223718717497    0.684097705485666  0.0000
  O3     O3        0.638463207435719    0.518236836414604    0.682836301970443  0.0000
  O2     O2        0.266361846700814    0.282521617532968    0.308406042259295  0.0000
  O2     O2        0.245696531451263    0.747057431004787    0.320177596284982  0.0000
  O2     O2        0.746719270472302    0.274180747337973    0.681773665911376  0.0000
  O3     O3        0.766457678221553    0.748645442988412    0.662914666495511  0.0000
  O2     O2        0.172934399389999    0.250365012357449    0.113630598434814  0.0000
  O2     O2        0.340924537977284    0.804670740955810    0.125481328805159  0.0000
  O2     O2        0.847915022778042    0.252400249140869    0.870026051410801  0.0000
  O3     O3        0.657904212590423    0.793726594101021    0.865027741898316  0.0000
  O2     O2        0.859187681224097    0.739415217125834    0.862632529414755  0.0000
  O2     O2        0.638155484617905    0.275516096324091    0.864538229010628  0.0000
  O2     O2        0.138671213858673    0.754490235371038    0.134403281156591  0.0000
  O3     O3        0.366912635329588    0.296729404517185    0.112928067143484  0.0000
  O2     O2        0.634105407313211    0.535293880799885    0.031595415041006  0.0000
  O2     O2        0.867016655163531    0.496982996166412    0.047229643147645  0.0000
  O3     O3        0.374191613818325    0.589869831847363    0.937404081914963  0.0000
  O2     O2        0.129995980370077    0.503004226560332    0.954894803166147  0.0000
  O2     O2        0.741987361527562    0.292181957272066    0.052382357817605  0.0000
  O2     O2        0.758872069967576    0.739441784772286    0.052481975382160  0.0000
  O3     O3        0.259252651900332    0.324730441069801    0.909384985738856  0.0000
  O2     O2        0.238943574332825    0.741023539414465    0.941322325851701  0.0000
