data_c00443.vasp
_audit_creation_method             Generated by GULP
_audit_author_name                 Salvador R. G. Balestra
_symmetry_space_group_name_H-M     'P 1             '
_symmetry_Int_Tables_number        1

loop_
_symmetry_equiv_pos_site_id
_symmetry_equiv_pos_as_xyz
_cell_length_a                       17.2372
_cell_length_b                        7.6324
_cell_length_c                       10.2680
_cell_angle_alpha                   89.4888
_cell_angle_beta                    90.5561
_cell_angle_gamma                   89.4210

loop_
_atom_site_label
_atom_site_type_symbol
_atom_site_fract_x
_atom_site_fract_y
_atom_site_fract_z
_atom_site_charge
  Ge     Ge        0.052090000000021    0.000000000000000    0.372269999999958  0.0000
  Ge     Ge        0.055373833932599    0.008124272232266    0.892722675192745  0.0000
  Ge     Ge        0.353652917897977    0.668203135051160    0.277898055774873  0.0000
  Ge     Ge        0.836396046387717    0.707199260119865    0.701670389458027  0.0000
  Si     Si        0.456821749927841    0.975032401830418    0.357134855453381  0.0000
  Si     Si        0.952502936683876    0.995183921423488    0.631463662680152  0.0000
  Si     Si        0.549384014435978    0.993846028780770    0.620433299507577  0.0000
  Si     Si        0.559147598999587    0.993745924794331    0.104180850588713  0.0000
  Si     Si        0.941927938122183    0.992731982380937    0.130624604887753  0.0000
  Si     Si        0.443420175870127    0.992361066327616    0.867065510361095  0.0000
  Si     Si        0.158631617522155    0.300933236519900    0.263105311820755  0.0000
  Si     Si        0.844046329157071    0.296284716614779    0.707894907048117  0.0000
  Si     Si        0.654465125712586    0.684924621186223    0.704102753538155  0.0000
  Si     Si        0.664208854940685    0.280957827982334    0.711223784857367  0.0000
  Si     Si        0.172097252440090    0.709865150706653    0.272576442521828  0.0000
  Si     Si        0.336819443913922    0.259487147111745    0.265790287398218  0.0000
  Si     Si        0.667281526040599    0.284199205664621    0.015168728844822  0.0000
  Si     Si        0.836002183100621    0.706386848767018    0.012490188579180  0.0000
  Si     Si        0.333959251181631    0.281737767498502    0.959673074298290  0.0000
  Si     Si        0.174010286444798    0.721160935898282    0.970329011055715  0.0000
  Si     Si        0.353440614931184    0.677017364977605    0.967109571403493  0.0000
  Si     Si        0.155021410371275    0.322311978238773    0.962352768226374  0.0000
  Si     Si        0.657256677307451    0.682204330356172    0.010316356878611  0.0000
  Si     Si        0.846500461754289    0.304263950823899    0.012242227755917  0.0000
  O3     O3        0.098796898824567    0.195827450753900    0.348480282051403  0.0000
  O3     O3        0.421600322563493    0.782915957249102    0.365686156989835  0.0000
  O2     O2        0.898889124337848    0.170806287981002    0.624369672521941  0.0000
  O2     O2        0.591726883521136    0.804312221524780    0.626883737170114  0.0000
  O3     O3        0.895338130053709    0.833493622084052    0.606969110609940  0.0000
  O2     O2        0.612836538897670    0.146633761070944    0.630212771705038  0.0000
  O3     O3        0.115273533083514    0.825689172312665    0.357861124666625  0.0000
  O2     O2        0.383588954530096    0.107248632085425    0.341267511194039  0.0000
  O3     O3        0.021874263701555    0.002324141564694    0.531995192290112  0.0000
  O2     O2        0.505593882249420    0.019164522992921    0.484756680762431  0.0000
  O3     O3        0.968649384485294    0.985427866562453    0.279361755357965  0.0000
  O2     O2        0.514739982530982    0.999254788130810    0.238020667924814  0.0000
  O3     O3        0.987274551618228    0.972240093414951    0.776270190165521  0.0000
  O2     O2        0.485498646571071    0.010990175118756    0.730979799621862  0.0000
  O2     O2        0.622595092018481    0.147572845030445    0.105385656887640  0.0000
  O2     O2        0.881687410731262    0.836358984421057    0.106182805799011  0.0000
  O2     O2        0.375640489996847    0.139086386749260    0.870300837563575  0.0000
  O3     O3        0.130562975348617    0.857270749315259    0.878715800960793  0.0000
  O2     O2        0.408112094397638    0.798011239386080    0.878372776677874  0.0000
  O3     O3        0.095144462927302    0.215181652882636    0.876470729676865  0.0000
  O2     O2        0.600519037384561    0.804435913828432    0.092468472801501  0.0000
  O2     O2        0.903297727771088    0.182639480225268    0.098006753314597  0.0000
  O2     O2        0.502065200213494    0.031567439812690    0.984098354255352  0.0000
  O3     O3        0.017306346416715    0.967662259055954    0.044109675938827  0.0000
  O2     O2        0.147294835278787    0.507399034134659    0.285121544529320  0.0000
  O3     O3        0.368157726020312    0.447513651610276    0.305903794791724  0.0000
  O3     O3        0.863889851728698    0.493403518866939    0.674319143142115  0.0000
  O2     O2        0.637802470361410    0.480003299324573    0.678006964597231  0.0000
  O2     O2        0.246360664942522    0.244408855237071    0.303188912269073  0.0000
  O3     O3        0.260405546952620    0.726909120628014    0.319948700872593  0.0000
  O2     O2        0.754189281164428    0.255556638816111    0.673992817910518  0.0000
  O3     O3        0.739913259057867    0.732169917271691    0.658482077523940  0.0000
  O2     O2        0.143433287953781    0.255696095413417    0.111389838529893  0.0000
  O3     O3        0.370649310171429    0.718370329624661    0.116387231319492  0.0000
  O2     O2        0.859656781236598    0.258540687190131    0.861392058837748  0.0000
  O2     O2        0.646615547519073    0.724397355371566    0.857564126463874  0.0000
  O3     O3        0.847314398487699    0.761256043000789    0.863814256146872  0.0000
  O2     O2        0.654230962704460    0.238639743580347    0.863916530430341  0.0000
  O2     O2        0.166069294045723    0.773820534173107    0.122044445974896  0.0000
  O2     O2        0.345090712724035    0.232136200091969    0.111062475010954  0.0000
  O2     O2        0.636243397871663    0.480833304980824    0.041981527861935  0.0000
  O2     O2        0.867328118137693    0.507289338490554    0.035498698797117  0.0000
  O2     O2        0.370868141859275    0.473234334636061    0.935129543876589  0.0000
  O2     O2        0.137505880141996    0.528744562298796    0.949004607884103  0.0000
  O2     O2        0.757992481234587    0.269178293106568    0.051441058498088  0.0000
  O2     O2        0.745777818626895    0.718073103663414    0.050660610367402  0.0000
  O2     O2        0.243463492071878    0.282884512108489    0.920551009403560  0.0000
  O2     O2        0.264086422417634    0.718684217297984    0.933081720174353  0.0000
