data_c00483.vasp
_audit_creation_method             Generated by GULP
_audit_author_name                 Salvador R. G. Balestra
_symmetry_space_group_name_H-M     'P 1             '
_symmetry_Int_Tables_number        1

loop_
_symmetry_equiv_pos_site_id
_symmetry_equiv_pos_as_xyz
_cell_length_a                       17.0811
_cell_length_b                        7.6097
_cell_length_c                       10.3007
_cell_angle_alpha                   89.8751
_cell_angle_beta                    90.3458
_cell_angle_gamma                   90.3945

loop_
_atom_site_label
_atom_site_type_symbol
_atom_site_fract_x
_atom_site_fract_y
_atom_site_fract_z
_atom_site_charge
  Ge     Ge        0.052090000000021    0.000000000000000    0.372269999999958  0.0000
  Ge     Ge        0.056477552493976    0.994706416300817    0.879287855693571  0.0000
  Ge     Ge        0.847877420660791    0.686630682470806    0.043855344610432  0.0000
  Ge     Ge        0.328873913699186    0.735133333165699    0.982201096337434  0.0000
  Si     Si        0.452312974599143    0.019444248789809    0.380145065626974  0.0000
  Si     Si        0.949870422591046    0.006687081728911    0.629965355139200  0.0000
  Si     Si        0.551864815840829    0.016161777526283    0.639228495143489  0.0000
  Si     Si        0.550152118180184    0.999242748354635    0.123272191505170  0.0000
  Si     Si        0.945218875948254    0.007415658342832    0.118899297160319  0.0000
  Si     Si        0.440285269914078    0.018495051581924    0.883874261914751  0.0000
  Si     Si        0.174430373399261    0.281495327540666    0.296801126940629  0.0000
  Si     Si        0.334658489954980    0.734480377939702    0.291672629926889  0.0000
  Si     Si        0.835592546243161    0.297338714440702    0.732465560393897  0.0000
  Si     Si        0.666028907651612    0.723850949583563    0.731067644145537  0.0000
  Si     Si        0.846155904466065    0.702999800556275    0.734665245982105  0.0000
  Si     Si        0.656465950346167    0.320220983270698    0.722639271108237  0.0000
  Si     Si        0.155213796501239    0.685426565849727    0.293839603056493  0.0000
  Si     Si        0.354728111631487    0.330887645113278    0.291398107251090  0.0000
  Si     Si        0.648718145066297    0.314178826758548    0.025246628728244  0.0000
  Si     Si        0.354093492071058    0.335090079117422    0.990359587083777  0.0000
  Si     Si        0.146333525794154    0.674481958640486    0.991278078317395  0.0000
  Si     Si        0.172080306539027    0.276874190537026    0.996868352101351  0.0000
  Si     Si        0.663528470267993    0.712780521187137    0.035416704703611  0.0000
  Si     Si        0.828800121353253    0.282697846814637    0.037253417133372  0.0000
  O3     O3        0.127310138147491    0.152655894160577    0.389476436272201  0.0000
  O2     O2        0.384302266599452    0.871275189999964    0.378268392961834  0.0000
  O2     O2        0.891193797643547    0.168367511790723    0.653945665619354  0.0000
  O2     O2        0.613335275981824    0.856947194675615    0.648733887749743  0.0000
  O2     O2        0.904926216041039    0.821515192237708    0.650527393854962  0.0000
  O2     O2        0.599050786960601    0.200634431940819    0.635660578362523  0.0000
  O3     O3        0.094067790907428    0.793959461594230    0.376908185345368  0.0000
  O2     O2        0.413830963489925    0.213306769877720    0.376653323847866  0.0000
  O3     O3        0.979226064138361    0.016705636911901    0.484247861409462  0.0000
  O2     O2        0.501634197538602    0.996781163752527    0.510181398267270  0.0000
  O3     O3        0.007362191070198    0.051964461979832    0.227483136743840  0.0000
  O2     O2        0.511185387280247    0.992025631293804    0.262460510911882  0.0000
  O3     O3        0.026307161279399    0.016942203152061    0.720904499605462  0.0000
  O2     O2        0.493058338290850    0.009176643749411    0.758512964042339  0.0000
  O2     O2        0.588782628117197    0.191105333493371    0.102446509910573  0.0000
  O3     O3        0.914222881668289    0.808062482113742    0.132882572845364  0.0000
  O2     O2        0.408658924088597    0.216072027929566    0.900547326392445  0.0000
  O3     O3        0.081977018339043    0.778561446970757    0.910739711362740  0.0000
  O3     O3        0.368148465036110    0.885117227855697    0.875839083129965  0.0000
  O3     O3        0.136169688333892    0.132205889401694    0.903732436507504  0.0000
  O2     O2        0.615179732234310    0.848282009634912    0.120891453457436  0.0000
  O2     O2        0.867645808154021    0.129779956135904    0.122290137844401  0.0000
  O2     O2        0.487393350056390    0.954611081504417    0.011672343608513  0.0000
  O3     O3        0.981985453665323    0.051926985939123    0.979689901946540  0.0000
  O2     O2        0.141722330267623    0.478331489078413    0.315341798835684  0.0000
  O2     O2        0.368885358287674    0.538328902599331    0.314063434004264  0.0000
  O2     O2        0.864369781686793    0.497586275062830    0.709891359300101  0.0000
  O2     O2        0.638089456427173    0.525238249419766    0.699206379873045  0.0000
  O2     O2        0.266465610748090    0.279741840601643    0.331198138599273  0.0000
  O2     O2        0.243851692098426    0.738311832429010    0.334837017538131  0.0000
  O2     O2        0.745866666661531    0.278362765914733    0.683771852702789  0.0000
  O2     O2        0.756933369850037    0.746073736682472    0.692740663819817  0.0000
  O2     O2        0.163099205295964    0.218254430202270    0.147365541797808  0.0000
  O3     O3        0.339230567368877    0.792950760388089    0.142999798758732  0.0000
  O2     O2        0.838991066508390    0.249197781725724    0.883760101444660  0.0000
  O2     O2        0.658850878775570    0.765525976734735    0.883545021600123  0.0000
  O3     O3        0.861270598619350    0.747827581194803    0.883836928534835  0.0000
  O2     O2        0.641585900692026    0.270486730719933    0.872702856252904  0.0000
  O2     O2        0.141408326917291    0.734138882729046    0.142324928713615  0.0000
  O2     O2        0.370189003556920    0.285999813498576    0.140984743703615  0.0000
  O2     O2        0.627556776990476    0.516617202148346    0.052771894646759  0.0000
  O3     O3        0.867722653570744    0.468447364372934    0.071196785817394  0.0000
  O3     O3        0.373955087117053    0.534611157430719    0.961075448374304  0.0000
  O2     O2        0.130132177899800    0.465543410194126    0.977877650536160  0.0000
  O2     O2        0.737153445869324    0.281048978994347    0.072714020211672  0.0000
  O3     O3        0.751767969432558    0.720874699375397    0.084829657426018  0.0000
  O2     O2        0.262878653661880    0.298910064279078    0.960269174257808  0.0000
  O3     O3        0.231726910723073    0.722251586213849    0.939138944012960  0.0000
