data_c00477.vasp
_audit_creation_method             Generated by GULP
_audit_author_name                 Salvador R. G. Balestra
_symmetry_space_group_name_H-M     'P 1             '
_symmetry_Int_Tables_number        1

loop_
_symmetry_equiv_pos_site_id
_symmetry_equiv_pos_as_xyz
_cell_length_a                       17.0994
_cell_length_b                        7.6109
_cell_length_c                       10.2873
_cell_angle_alpha                   90.4696
_cell_angle_beta                    89.9430
_cell_angle_gamma                   90.2538

loop_
_atom_site_label
_atom_site_type_symbol
_atom_site_fract_x
_atom_site_fract_y
_atom_site_fract_z
_atom_site_charge
  Ge     Ge        0.052090000000021    0.000000000000000    0.372269999999958  0.0000
  Ge     Ge        0.057965591365873    0.000941965653979    0.893593115446999  0.0000
  Ge     Ge        0.649951407067417    0.340275308750914    0.014359353537870  0.0000
  Ge     Ge        0.334715354666375    0.737855586147298    0.964947504202295  0.0000
  Si     Si        0.453145639320004    0.019000935761045    0.362009183209507  0.0000
  Si     Si        0.952677705922023    0.013911890414130    0.636018636250077  0.0000
  Si     Si        0.555599276703562    0.021937285575377    0.617422244869317  0.0000
  Si     Si        0.553752988628202    0.022194466357173    0.109341512900318  0.0000
  Si     Si        0.943705050115554    0.022419945028760    0.129148860309103  0.0000
  Si     Si        0.447247821152290    0.020352302616391    0.866636153493944  0.0000
  Si     Si        0.175278714437036    0.284020457436273    0.269186705076756  0.0000
  Si     Si        0.336162786797852    0.734223265878143    0.274301408319398  0.0000
  Si     Si        0.837154424081908    0.303731840433456    0.711262470388519  0.0000
  Si     Si        0.668843939735712    0.733211729864490    0.705393672028809  0.0000
  Si     Si        0.848959576000353    0.705718068053294    0.707769555165254  0.0000
  Si     Si        0.656989453929334    0.328727875058494    0.705315476295779  0.0000
  Si     Si        0.157076622519405    0.689834760898036    0.271012679530847  0.0000
  Si     Si        0.354501068065147    0.329055455725573    0.270165344398428  0.0000
  Si     Si        0.849334509025116    0.709137792881490    0.010870625185366  0.0000
  Si     Si        0.358679116607638    0.337484401702839    0.968119401715903  0.0000
  Si     Si        0.152506612965313    0.678602904907288    0.968114419817104  0.0000
  Si     Si        0.177912011005768    0.282549365628271    0.968509728633729  0.0000
  Si     Si        0.668659457204742    0.746206316396045    0.009582311679757  0.0000
  Si     Si        0.833990996646241    0.310030161824665    0.016909080163160  0.0000
  O3     O3        0.124293712528005    0.156648943862362    0.355599527712872  0.0000
  O2     O2        0.386250592121507    0.868829087885377    0.362810584426241  0.0000
  O2     O2        0.888391711046066    0.169562369767660    0.626179305153197  0.0000
  O2     O2        0.618398224492787    0.863885917224290    0.617812690319604  0.0000
  O2     O2        0.907780294381427    0.825560684457072    0.624551990082346  0.0000
  O2     O2        0.601186032234744    0.207993674673208    0.615190013005610  0.0000
  O3     O3        0.094215347847202    0.795516262607689    0.353491244328904  0.0000
  O2     O2        0.414091621209664    0.211834361365213    0.353235914006937  0.0000
  O3     O3        0.019142625780278    0.022932554653639    0.529769824841596  0.0000
  O2     O2        0.501306278325737    0.006283467272795    0.493210741163745  0.0000
  O3     O3        0.970019517847505    0.025369687410701    0.277587955895507  0.0000
  O2     O2        0.513747870304724    0.983618480222436    0.245989650431220  0.0000
  O3     O3        0.991645364403690    0.040122103400108    0.775850033145665  0.0000
  O2     O2        0.500570722585547    0.005180574440127    0.741643893487092  0.0000
  O3     O3        0.581825937582723    0.222547343026531    0.100763115437710  0.0000
  O2     O2        0.907218767821699    0.831208826147245    0.093424368864620  0.0000
  O2     O2        0.415632317889395    0.219092212186716    0.880164019701676  0.0000
  O3     O3        0.089345771100496    0.785433887635362    0.887789120345061  0.0000
  O3     O3        0.375436089820321    0.886928674241302    0.860451906692453  0.0000
  O3     O3        0.138472812615211    0.139442787413039    0.877772889495655  0.0000
  O2     O2        0.630854521227730    0.901620455220233    0.093949982460105  0.0000
  O2     O2        0.880969658710709    0.174727025636260    0.104352439627756  0.0000
  O2     O2        0.494919910342546    0.964492346838887    0.994919555807050  0.0000
  O3     O3        0.019669764881272    0.055396955013474    0.043358960497015  0.0000
  O2     O2        0.143535727515601    0.481986200415035    0.288234991711096  0.0000
  O2     O2        0.368911745913027    0.536547537517450    0.294056261752089  0.0000
  O2     O2        0.867683119033730    0.501059764909627    0.682477443526871  0.0000
  O2     O2        0.639038475762736    0.534050227975069    0.681483658873700  0.0000
  O2     O2        0.266320865224410    0.278313586668798    0.310933444622050  0.0000
  O2     O2        0.245096127276381    0.741047034346860    0.316436390859455  0.0000
  O2     O2        0.746877460538973    0.287500973856751    0.668811685684487  0.0000
  O2     O2        0.760041536421207    0.748109767421417    0.666706091620653  0.0000
  O2     O2        0.169764380547692    0.223355445676099    0.118773518628699  0.0000
  O3     O3        0.342854907587897    0.795402453614551    0.126521423752127  0.0000
  O2     O2        0.842195769204432    0.260866790343792    0.864394570153612  0.0000
  O2     O2        0.659538391647135    0.785648051080722    0.856317256777681  0.0000
  O2     O2        0.862626582134366    0.752125934299923    0.859370938789561  0.0000
  O3     O3        0.639819062556747    0.280480799933900    0.853350255372811  0.0000
  O2     O2        0.146862636348150    0.739972072965791    0.119525484537532  0.0000
  O2     O2        0.370086289569228    0.284365393260189    0.118931426497526  0.0000
  O3     O3        0.629909495411583    0.559911624185868    0.039425894938349  0.0000
  O2     O2        0.868952592898554    0.506237823177397    0.039805301933354  0.0000
  O3     O3        0.380411975581533    0.536915526723449    0.944599504006864  0.0000
  O2     O2        0.135885346642106    0.471089272825387    0.952061788255931  0.0000
  O3     O3        0.744883667894492    0.301658285353984    0.060921592495403  0.0000
  O2     O2        0.759718684835329    0.744292624120893    0.048642959845439  0.0000
  O2     O2        0.268572817664057    0.303124279101597    0.929752132724969  0.0000
  O3     O3        0.238666877048201    0.724166842423865    0.918262550666513  0.0000
