data_c00421.vasp
_audit_creation_method             Generated by GULP
_audit_author_name                 Salvador R. G. Balestra
_symmetry_space_group_name_H-M     'P 1             '
_symmetry_Int_Tables_number        1

loop_
_symmetry_equiv_pos_site_id
_symmetry_equiv_pos_as_xyz
_cell_length_a                       17.0054
_cell_length_b                        7.5657
_cell_length_c                       10.4564
_cell_angle_alpha                   90.6039
_cell_angle_beta                    91.2141
_cell_angle_gamma                   90.1676

loop_
_atom_site_label
_atom_site_type_symbol
_atom_site_fract_x
_atom_site_fract_y
_atom_site_fract_z
_atom_site_charge
  Ge     Ge        0.052090000000021    0.000000000000000    0.372269999999958  0.0000
  Ge     Ge        0.433020351176910    0.980706018952538    0.862411358898493  0.0000
  Ge     Ge        0.824866826887880    0.743516871534781    0.013415977270886  0.0000
  Ge     Ge        0.851964570779466    0.331104933173281    0.022286645875981  0.0000
  Si     Si        0.455019441642343    0.983656378622465    0.351015721313276  0.0000
  Si     Si        0.944782373896906    0.995245958406312    0.627156351193557  0.0000
  Si     Si        0.544825536601651    0.976230451878480    0.617699573400144  0.0000
  Si     Si        0.550651655990457    0.997286577756870    0.098478079713831  0.0000
  Si     Si        0.940618594741783    0.013478648324024    0.121389874521195  0.0000
  Si     Si        0.043981050916568    0.987920125456077    0.883668839862364  0.0000
  Si     Si        0.154220069337215    0.309371000243185    0.283038595329046  0.0000
  Si     Si        0.352399189941521    0.673093807861660    0.262298623591815  0.0000
  Si     Si        0.844048020812545    0.302419918931572    0.720815895764747  0.0000
  Si     Si        0.647599223659177    0.668029579337660    0.705457377754636  0.0000
  Si     Si        0.826511393907100    0.712932426660755    0.710927985547483  0.0000
  Si     Si        0.664160318438973    0.265517284693550    0.715511456661486  0.0000
  Si     Si        0.172055515295100    0.716358703904353    0.279283890808733  0.0000
  Si     Si        0.335032139511948    0.266099009410235    0.264512595919905  0.0000
  Si     Si        0.666482355908787    0.280341435396791    0.015353222866278  0.0000
  Si     Si        0.319420904323459    0.259511021313801    0.968315665452965  0.0000
  Si     Si        0.159555965653310    0.707507691958619    0.983098648378828  0.0000
  Si     Si        0.341013762659234    0.661433924532778    0.966328416939161  0.0000
  Si     Si        0.138361696981804    0.305355550471865    0.988040168603409  0.0000
  Si     Si        0.642477535228060    0.675377194113949    0.005619593072457  0.0000
  O3     O3        0.097374386320974    0.204538711309935    0.373864705697900  0.0000
  O2     O2        0.414907986622936    0.789874416314208    0.343586067115183  0.0000
  O2     O2        0.902774609009763    0.186800052735929    0.634502875259425  0.0000
  O2     O2        0.584063959736359    0.782130153311388    0.626419252861630  0.0000
  O2     O2        0.879631676436750    0.838806049552872    0.624390119156823  0.0000
  O2     O2        0.612967753003928    0.122486524192245    0.637542661468861  0.0000
  O3     O3        0.126784310494942    0.845455974182317    0.371823140241161  0.0000
  O2     O2        0.387520333469690    0.133489997876106    0.348538499157379  0.0000
  O3     O3        0.992975976271083    0.980376860633593    0.500151935369678  0.0000
  O2     O2        0.505707202533635    0.000921675079386    0.479620483015297  0.0000
  O3     O3        0.991853030981663    0.959792014111537    0.241517458812079  0.0000
  O2     O2        0.513732332534627    0.012931723747155    0.236303204892176  0.0000
  O2     O2        0.006731970010720    0.969869626145000    0.743560234952843  0.0000
  O3     O3        0.476849107968414    0.001065582046750    0.718645670637466  0.0000
  O2     O2        0.624682722964554    0.130970373692580    0.097483429884627  0.0000
  O3     O3        0.858061306921793    0.909514861110375    0.113182058930976  0.0000
  O3     O3        0.353039573826500    0.121567545009809    0.870065643323330  0.0000
  O2     O2        0.114226244483355    0.846127701068331    0.894125398808887  0.0000
  O3     O3        0.397542786288064    0.767533739531480    0.876127387646632  0.0000
  O2     O2        0.076366152428120    0.187935444112973    0.905907321454235  0.0000
  O2     O2        0.577033343064894    0.794740672128766    0.073044476584421  0.0000
  O3     O3        0.919622297798232    0.219549846542582    0.116988794132334  0.0000
  O3     O3        0.491898458880565    0.055239554482290    0.986606613219127  0.0000
  O2     O2        0.980484304564728    0.942745839243772    0.989878223944321  0.0000
  O2     O2        0.143013532121264    0.517315994880718    0.305049613245208  0.0000
  O2     O2        0.366867112076206    0.465776777264733    0.286766567875039  0.0000
  O2     O2        0.859723989542767    0.512489213979703    0.706387200161904  0.0000
  O2     O2        0.629836067698205    0.460048284330788    0.684693866484652  0.0000
  O2     O2        0.244890008649119    0.254373714465141    0.308637414611865  0.0000
  O2     O2        0.265445815866117    0.727467727478024    0.305913368720809  0.0000
  O2     O2        0.754880468961782    0.256508388869755    0.674306853180673  0.0000
  O2     O2        0.735744859922425    0.712297575982934    0.660155483888635  0.0000
  O2     O2        0.128313456363948    0.256587676924638    0.137037662386101  0.0000
  O2     O2        0.362700640143961    0.716946743485127    0.112981744865281  0.0000
  O3     O3        0.859536343027322    0.251980413658378    0.866761057396971  0.0000
  O2     O2        0.638868339689587    0.718624246751772    0.854340467820938  0.0000
  O3     O3        0.828545472504010    0.791470689763225    0.852852022230069  0.0000
  O2     O2        0.662013037685984    0.223760921622538    0.865787858414630  0.0000
  O2     O2        0.153852677940670    0.767294425251062    0.131380990302393  0.0000
  O2     O2        0.339153708471817    0.208709560659010    0.115809473888684  0.0000
  O2     O2        0.622612627230319    0.469500851451058    0.030530091804484  0.0000
  O1     O1        0.873818843175662    0.548689282473791    0.038316875127334  0.0000
  O2     O2        0.354750398787172    0.453971401740084    0.943106928852134  0.0000
  O2     O2        0.120955379568606    0.512449038539970    0.964805543441920  0.0000
  O3     O3        0.755254486269583    0.297494147227854    0.064312386012140  0.0000
  O3     O3        0.728534136359328    0.716570078945460    0.058547577547821  0.0000
  O2     O2        0.225750014795853    0.261454305751671    0.945324391139590  0.0000
  O2     O2        0.249483795280727    0.706936798493082    0.939597609016356  0.0000
