data_c00418.vasp
_audit_creation_method             Generated by GULP
_audit_author_name                 Salvador R. G. Balestra
_symmetry_space_group_name_H-M     'P 1             '
_symmetry_Int_Tables_number        1

loop_
_symmetry_equiv_pos_site_id
_symmetry_equiv_pos_as_xyz
_cell_length_a                       16.9770
_cell_length_b                        7.6011
_cell_length_c                       10.4479
_cell_angle_alpha                   90.3205
_cell_angle_beta                    90.5563
_cell_angle_gamma                   89.6022

loop_
_atom_site_label
_atom_site_type_symbol
_atom_site_fract_x
_atom_site_fract_y
_atom_site_fract_z
_atom_site_charge
  Ge     Ge        0.052090000000021    0.000000000000000    0.372269999999958  0.0000
  Ge     Ge        0.436442762752675    0.966782200629406    0.862637399461436  0.0000
  Ge     Ge        0.829055165729315    0.701182388432960    0.012651916338016  0.0000
  Ge     Ge        0.164861001628375    0.701319070263005    0.970906427380629  0.0000
  Si     Si        0.454139805143113    0.972624492960396    0.348143140463449  0.0000
  Si     Si        0.945051975259713    0.988035923477831    0.627140919015350  0.0000
  Si     Si        0.544290246684018    0.976180049482710    0.614310011530097  0.0000
  Si     Si        0.553442928637124    0.983253129657847    0.098054896721324  0.0000
  Si     Si        0.941674736303082    0.983304843523582    0.118587850364104  0.0000
  Si     Si        0.048143121728470    0.982418918450815    0.881717667558166  0.0000
  Si     Si        0.153769930651185    0.306260120969696    0.279688277220306  0.0000
  Si     Si        0.352603208942180    0.661523876700106    0.259147958433559  0.0000
  Si     Si        0.841995538931765    0.295262516394581    0.705872451392600  0.0000
  Si     Si        0.648748048925783    0.667667483026123    0.708225526131992  0.0000
  Si     Si        0.829313277503351    0.702010054035085    0.707973062568690  0.0000
  Si     Si        0.660954590655830    0.264611968550266    0.706627388927735  0.0000
  Si     Si        0.172783701960140    0.714011618141968    0.272027713217950  0.0000
  Si     Si        0.334988939496652    0.258733324154500    0.266403535851832  0.0000
  Si     Si        0.665697448781104    0.263429215347982    0.005160079766261  0.0000
  Si     Si        0.322124185933016    0.246822390450540    0.969946107414660  0.0000
  Si     Si        0.348703903519900    0.641173781845561    0.959501826347087  0.0000
  Si     Si        0.139017252263137    0.299237775535683    0.986466348417445  0.0000
  Si     Si        0.645061746476117    0.659928470744665    0.008681970102984  0.0000
  Si     Si        0.848758554677694    0.297083324832960    0.003259648178993  0.0000
  O3     O3        0.097211627348779    0.203537696971406    0.372940329726076  0.0000
  O2     O2        0.415393538628191    0.779983923135739    0.335570157200284  0.0000
  O2     O2        0.899463478403573    0.176323607011988    0.619030031179446  0.0000
  O2     O2        0.586530020950966    0.786982486644983    0.631769997827682  0.0000
  O2     O2        0.880883006709378    0.831257443723733    0.621440886644406  0.0000
  O2     O2        0.609000858777162    0.130137091121600    0.624262694381478  0.0000
  O3     O3        0.124633759126370    0.840545652165465    0.363873036744587  0.0000
  O2     O2        0.386204289630736    0.122617718214174    0.350190681673800  0.0000
  O3     O3        0.005625331342948    0.968962166491901    0.514796655557246  0.0000
  O2     O2        0.504452894050601    0.982674842470073    0.476376599935141  0.0000
  O3     O3        0.981026473405102    0.982652093831581    0.255872430717357  0.0000
  O2     O2        0.513476420770601    0.008320204010874    0.233719542105387  0.0000
  O2     O2        0.993162910250137    0.975526255679439    0.759011042778339  0.0000
  O3     O3        0.476224888446656    0.003827065848250    0.716305024018995  0.0000
  O2     O2        0.627919795830235    0.114659684556879    0.092499732302451  0.0000
  O3     O3        0.871411802681920    0.844951597773244    0.117730287907397  0.0000
  O3     O3        0.352451075811627    0.096471941375741    0.877786211864063  0.0000
  O3     O3        0.119389912177269    0.846332354434806    0.868279956636501  0.0000
  O3     O3        0.410207100695153    0.748546001874858    0.877191574815138  0.0000
  O2     O2        0.081058552482702    0.179604480578072    0.901519271223087  0.0000
  O2     O2        0.581125370819173    0.779872731463929    0.081617370838679  0.0000
  O2     O2        0.906724361366006    0.176234538110801    0.086548373062538  0.0000
  O3     O3        0.496675318663562    0.040116353849255    0.983751891357961  0.0000
  O2     O2        0.001150254328583    0.918608959450991    0.007383474578997  0.0000
  O2     O2        0.141175492099470    0.515155429151658    0.288446007288541  0.0000
  O2     O2        0.368931212887604    0.455529846016439    0.286301762417665  0.0000
  O2     O2        0.859355940714083    0.501436312685096    0.685975131018402  0.0000
  O2     O2        0.630422331488996    0.463054139217585    0.680504382226124  0.0000
  O2     O2        0.244503480726648    0.254968242014918    0.311545600052755  0.0000
  O2     O2        0.265693083491566    0.715211840840865    0.306637806330106  0.0000
  O2     O2        0.752161130039294    0.250769135125040    0.666377233051186  0.0000
  O2     O2        0.737354306322365    0.714163206755553    0.666385647273555  0.0000
  O2     O2        0.130495752441510    0.242873867927164    0.135346233154629  0.0000
  O2     O2        0.359371738977305    0.699917025731498    0.108292046100499  0.0000
  O2     O2        0.857534820223457    0.246035844587923    0.853784586028734  0.0000
  O2     O2        0.638665619438036    0.708244527872426    0.858438226604865  0.0000
  O3     O3        0.837223967504972    0.761003015713530    0.854472421348108  0.0000
  O2     O2        0.653689705417780    0.214701196361724    0.855686567079197  0.0000
  O3     O3        0.161228979120487    0.776914572500413    0.126939942924837  0.0000
  O2     O2        0.338748758761154    0.198197709308098    0.118518600528602  0.0000
  O2     O2        0.625758726083137    0.454166595454209    0.031451681558731  0.0000
  O3     O3        0.871860533124178    0.495797709627657    0.029271694604065  0.0000
  O2     O2        0.364418836213947    0.432925899158932    0.941610549085278  0.0000
  O3     O3        0.117535379604091    0.500348851050088    0.964444742458504  0.0000
  O2     O2        0.757732163276845    0.270027060759397    0.041448481176674  0.0000
  O3     O3        0.731885864010218    0.698065473543685    0.057698291449440  0.0000
  O2     O2        0.229200069794118    0.270244665982916    0.945201152792016  0.0000
  O3     O3        0.260025009511810    0.686276344898035    0.917736683444737  0.0000
