data_c00400.vasp
_audit_creation_method             Generated by GULP
_audit_author_name                 Salvador R. G. Balestra
_symmetry_space_group_name_H-M     'P 1             '
_symmetry_Int_Tables_number        1

loop_
_symmetry_equiv_pos_site_id
_symmetry_equiv_pos_as_xyz
_cell_length_a                       17.3506
_cell_length_b                        7.6669
_cell_length_c                       10.0590
_cell_angle_alpha                   89.5694
_cell_angle_beta                    91.2397
_cell_angle_gamma                   90.5449

loop_
_atom_site_label
_atom_site_type_symbol
_atom_site_fract_x
_atom_site_fract_y
_atom_site_fract_z
_atom_site_charge
  Ge     Ge        0.052090000000021    0.000000000000000    0.372269999999958  0.0000
  Ge     Ge        0.429283182363048    0.018146674259194    0.890864186718125  0.0000
  Ge     Ge        0.831122966061873    0.315891753642921    0.716364121252073  0.0000
  Ge     Ge        0.826582222876659    0.304166351152846    0.040757514244775  0.0000
  Si     Si        0.448680307783821    0.021501497577026    0.375901835771947  0.0000
  Si     Si        0.941934882460967    0.021737606346863    0.622726524804222  0.0000
  Si     Si        0.543500895525079    0.023383419382408    0.642460865977010  0.0000
  Si     Si        0.546947931180592    0.009334794180431    0.128885020865641  0.0000
  Si     Si        0.936603495613246    0.012866791187214    0.120801894271886  0.0000
  Si     Si        0.041994241051139    0.009234259060882    0.880320874899005  0.0000
  Si     Si        0.165532789690461    0.298726295824397    0.297315232975536  0.0000
  Si     Si        0.336174305984232    0.724661129383670    0.275126335086968  0.0000
  Si     Si        0.653260121725763    0.727729814614432    0.718356342415652  0.0000
  Si     Si        0.831964320510427    0.726489238205422    0.727126517417743  0.0000
  Si     Si        0.652918582638248    0.329668899150263    0.708695188025416  0.0000
  Si     Si        0.159746539952406    0.700877852309022    0.299717204489202  0.0000
  Si     Si        0.343029542830030    0.321418775997762    0.275791814826080  0.0000
  Si     Si        0.648790090113248    0.320094584903249    0.024696017494385  0.0000
  Si     Si        0.832055509350806    0.710956048565016    0.037181855811131  0.0000
  Si     Si        0.328898800111294    0.328432811395460    0.967297115081604  0.0000
  Si     Si        0.140635210575828    0.701878470955105    0.990375106906825  0.0000
  Si     Si        0.317264331845958    0.725668985118193    0.965518571790938  0.0000
  Si     Si        0.150938314055802    0.302573453746634    0.988450751557387  0.0000
  Si     Si        0.652997673564747    0.716791829979841    0.028721497518108  0.0000
  O3     O3        0.115762370199674    0.174525099284868    0.389039462098783  0.0000
  O2     O2        0.393250989696201    0.854236313954492    0.353774781933306  0.0000
  O3     O3        0.896166380028278    0.201044500255009    0.626267338544436  0.0000
  O2     O2        0.602343439926177    0.861877572560446    0.631521081316896  0.0000
  O2     O2        0.881701005169412    0.864402632031453    0.645498657601719  0.0000
  O2     O2        0.590491725853884    0.205703752770784    0.635570839573919  0.0000
  O3     O3        0.107182501643141    0.814246024713462    0.391763425665751  0.0000
  O2     O2        0.402011521521455    0.200976573677566    0.357924947619342  0.0000
  O3     O3        0.977544509573225    0.003158170063965    0.479405168195389  0.0000
  O2     O2        0.479244530622044    0.014587402028333    0.526773983114242  0.0000
  O3     O3        0.008866976404445    0.002610898065470    0.217275266096245  0.0000
  O2     O2        0.522747315189941    0.019819839410519    0.282330740523590  0.0000
  O2     O2        0.013716554910330    0.014258999628621    0.727663975669347  0.0000
  O3     O3        0.501562693889438    0.008576607015045    0.780838245599713  0.0000
  O2     O2        0.584052831226113    0.192826546141212    0.082331129646515  0.0000
  O2     O2        0.882998949360706    0.839295638930531    0.129300742904451  0.0000
  O3     O3        0.381676547541197    0.214603437350251    0.876098791451723  0.0000
  O2     O2        0.080627666168652    0.821833607389752    0.909596312621325  0.0000
  O3     O3        0.360000031028695    0.856309816890925    0.869306142078139  0.0000
  O2     O2        0.102041803769172    0.168313484229722    0.899819895002206  0.0000
  O2     O2        0.606446613711386    0.850736419828375    0.116705559666729  0.0000
  O3     O3        0.882497111504693    0.176620166575860    0.145179112139779  0.0000
  O3     O3        0.470203705731736    0.975858901130963    0.044688723733420  0.0000
  O2     O2        0.968771496750117    0.036846111136839    0.971386302400009  0.0000
  O2     O2        0.143311845964973    0.497544576067505    0.327116727850597  0.0000
  O2     O2        0.362744458596797    0.525120581429944    0.300556388334760  0.0000
  O3     O3        0.858100078645697    0.532712855062196    0.699415196487040  0.0000
  O2     O2        0.627406851142530    0.530185134542323    0.683854282578881  0.0000
  O2     O2        0.256892843117994    0.275852380497876    0.323203288380420  0.0000
  O2     O2        0.249689687052164    0.746446256966597    0.328013394846590  0.0000
  O3     O3        0.737175219550524    0.296495671483696    0.654659164102798  0.0000
  O2     O2        0.742630434857666    0.753226623175123    0.683306106443464  0.0000
  O2     O2        0.145145109770473    0.251260505467502    0.143565162374898  0.0000
  O2     O2        0.336117942791728    0.772728743033015    0.119322827813711  0.0000
  O1     O1        0.834897998316379    0.247566803014117    0.877977791543957  0.0000
  O2     O2        0.641579816656269    0.767725741538833    0.873966131683731  0.0000
  O2     O2        0.842157269484796    0.765292068855648    0.883591955908918  0.0000
  O2     O2        0.657298090386679    0.291934662825371    0.866947807922849  0.0000
  O2     O2        0.137609000407538    0.747041737356103    0.146122646858257  0.0000
  O2     O2        0.350399308329856    0.278342156573407    0.120207570902352  0.0000
  O2     O2        0.622789262575659    0.519145913999407    0.052669224218181  0.0000
  O3     O3        0.858669407425259    0.516244128524880    0.062277869477090  0.0000
  O2     O2        0.346214229357882    0.530660448809334    0.937806845842299  0.0000
  O2     O2        0.118776351206945    0.498598855415940    0.966121580948490  0.0000
  O3     O3        0.731659059748586    0.284590056523259    0.089772698864486  0.0000
  O2     O2        0.742300752603238    0.729549824958510    0.073172000879922  0.0000
  O2     O2        0.238495608778055    0.289771317118922    0.941432109649018  0.0000
  O2     O2        0.225862376232707    0.739117785776095    0.937323869586114  0.0000
