data_c00444.vasp
_audit_creation_method             Generated by GULP
_audit_author_name                 Salvador R. G. Balestra
_symmetry_space_group_name_H-M     'P 1             '
_symmetry_Int_Tables_number        1

loop_
_symmetry_equiv_pos_site_id
_symmetry_equiv_pos_as_xyz
_cell_length_a                       17.2778
_cell_length_b                        7.6466
_cell_length_c                       10.1502
_cell_angle_alpha                   88.6342
_cell_angle_beta                    89.7811
_cell_angle_gamma                   89.0667

loop_
_atom_site_label
_atom_site_type_symbol
_atom_site_fract_x
_atom_site_fract_y
_atom_site_fract_z
_atom_site_charge
  Ge     Ge        0.052090000000021    0.000000000000000    0.372269999999958  0.0000
  Ge     Ge        0.062774955023615    0.022569064649975    0.876358544767166  0.0000
  Ge     Ge        0.355107552619318    0.665760930102128    0.309062768066204  0.0000
  Ge     Ge        0.665267978610416    0.306438364119566    0.730345624371088  0.0000
  Si     Si        0.455028402413703    0.971213407585617    0.397682116920162  0.0000
  Si     Si        0.953664623979637    0.010797985767410    0.633508098356188  0.0000
  Si     Si        0.551926314400025    0.018610263691985    0.652847850455273  0.0000
  Si     Si        0.559550359274771    0.001297517691035    0.148931461364170  0.0000
  Si     Si        0.946623049639685    0.991460751350493    0.114551712109791  0.0000
  Si     Si        0.447563251673331    0.000870990478337    0.908456287071699  0.0000
  Si     Si        0.159622551333000    0.304944645978624    0.295282875090239  0.0000
  Si     Si        0.846546297611897    0.313041827084652    0.734400783964072  0.0000
  Si     Si        0.663709433267496    0.717975192609975    0.734290338169792  0.0000
  Si     Si        0.842021480960206    0.715838051463627    0.739352290381572  0.0000
  Si     Si        0.172701025083989    0.711483251157012    0.306346121817067  0.0000
  Si     Si        0.337455501705723    0.261474381329460    0.296151773654122  0.0000
  Si     Si        0.664551768697122    0.294638675623292    0.043915567138717  0.0000
  Si     Si        0.838114127544886    0.699680747634827    0.048871089463378  0.0000
  Si     Si        0.335761805920506    0.291976536893473    0.984717653318953  0.0000
  Si     Si        0.175172052442574    0.730558508870564    0.001148222772808  0.0000
  Si     Si        0.355251789312336    0.684393678039824    0.994536957044204  0.0000
  Si     Si        0.157363177097734    0.329903057919686    0.990026330679199  0.0000
  Si     Si        0.660174124851243    0.696892993292343    0.042527255599586  0.0000
  Si     Si        0.842960030275770    0.304414902404807    0.045756791007905  0.0000
  O3     O3        0.100690462902828    0.195112206868133    0.382261615701212  0.0000
  O3     O3        0.421608606272811    0.778206543480866    0.398386146590936  0.0000
  O2     O2        0.909336030517223    0.193904735996812    0.660972007294627  0.0000
  O2     O2        0.610158317031710    0.851493204060195    0.650406652717786  0.0000
  O2     O2        0.898274267476019    0.847440417266663    0.664075876858387  0.0000
  O3     O3        0.603772549327471    0.188431323468378    0.636162994796130  0.0000
  O3     O3        0.118006966457861    0.828998214057096    0.395831602290236  0.0000
  O2     O2        0.382921816309072    0.101554378562469    0.365945607197317  0.0000
  O3     O3        0.976621366168096    0.999825396567740    0.481738939337011  0.0000
  O2     O2        0.488492702321893    0.010649225902938    0.539982047538651  0.0000
  O3     O3        0.014064730170988    0.976811206591960    0.217591258638661  0.0000
  O2     O2        0.524775995738465    0.997859749447829    0.294626564520920  0.0000
  O3     O3        0.032822398672327    0.003763580095553    0.715387516933672  0.0000
  O2     O2        0.506654518460918    0.024925552708871    0.790285606479238  0.0000
  O2     O2        0.616208510780752    0.165908662560155    0.138478125482989  0.0000
  O2     O2        0.888067860517433    0.829287916662079    0.134365828289560  0.0000
  O2     O2        0.380897716942123    0.150904977427400    0.897551157245920  0.0000
  O3     O3        0.134826296751432    0.868969162921303    0.905222236071172  0.0000
  O2     O2        0.409268921708048    0.809720756721762    0.904627626367543  0.0000
  O3     O3        0.098929347541469    0.229550293004765    0.899751281085384  0.0000
  O2     O2        0.604913536785800    0.818232582585660    0.128873837182104  0.0000
  O2     O2        0.897958373601609    0.173251057212461    0.129217702507136  0.0000
  O2     O2        0.491061062716976    0.026991469958095    0.045141470775328  0.0000
  O3     O3        0.982117428019709    0.982875167411058    0.969288669373469  0.0000
  O2     O2        0.147905668677668    0.509720130722906    0.320496991176713  0.0000
  O3     O3        0.368746062863530    0.445126625404755    0.342641632970526  0.0000
  O2     O2        0.865480952336644    0.516915233105288    0.704376066266827  0.0000
  O3     O3        0.641456675637246    0.523232479794388    0.702476437361432  0.0000
  O2     O2        0.247005241815281    0.246098730278400    0.333617947661653  0.0000
  O3     O3        0.261451091845188    0.726546941744913    0.347677602661365  0.0000
  O3     O3        0.760989319052921    0.272276066265887    0.686782072387592  0.0000
  O2     O2        0.753314755295964    0.753015396923514    0.696206369185979  0.0000
  O2     O2        0.144400141289648    0.264516209867305    0.141356711989280  0.0000
  O3     O3        0.375217666297105    0.712373955060816    0.145631081319386  0.0000
  O2     O2        0.852767950794802    0.272893550227944    0.890562574302529  0.0000
  O2     O2        0.651147024198701    0.752017937194206    0.889529793041143  0.0000
  O2     O2        0.849067888751865    0.744279406115757    0.894711141968069  0.0000
  O3     O3        0.653611373576573    0.244181613592202    0.893632897619609  0.0000
  O2     O2        0.162629138636625    0.778967617495527    0.153995529451741  0.0000
  O2     O2        0.346313264435278    0.249004237409251    0.138952552219139  0.0000
  O2     O2        0.636061191398357    0.495175123882832    0.063872121738793  0.0000
  O2     O2        0.866777646056042    0.501159729007898    0.080311298578465  0.0000
  O2     O2        0.370609090751644    0.483770617842794    0.953347556505599  0.0000
  O2     O2        0.141448692536975    0.537838693900296    0.976874983321915  0.0000
  O2     O2        0.754129614059425    0.273506812507897    0.085311773676074  0.0000
  O2     O2        0.748276721839494    0.722158883690295    0.088136660797918  0.0000
  O2     O2        0.245642418361696    0.286899820923315    0.946484249089836  0.0000
  O2     O2        0.265971345072578    0.733130003947570    0.968908648612139  0.0000
