data_c00414.vasp
_audit_creation_method             Generated by GULP
_audit_author_name                 Salvador R. G. Balestra
_symmetry_space_group_name_H-M     'P 1             '
_symmetry_Int_Tables_number        1

loop_
_symmetry_equiv_pos_site_id
_symmetry_equiv_pos_as_xyz
_cell_length_a                       17.0671
_cell_length_b                        7.5978
_cell_length_c                       10.4078
_cell_angle_alpha                   89.9879
_cell_angle_beta                    90.9852
_cell_angle_gamma                   89.6457

loop_
_atom_site_label
_atom_site_type_symbol
_atom_site_fract_x
_atom_site_fract_y
_atom_site_fract_z
_atom_site_charge
  Ge     Ge        0.052090000000021    0.000000000000000    0.372269999999958  0.0000
  Ge     Ge        0.447422965932817    0.988149850634062    0.869861906505709  0.0000
  Ge     Ge        0.671494300367236    0.271257265105441    0.020775940567933  0.0000
  Ge     Ge        0.146437703230087    0.320525011173510    0.975883161142898  0.0000
  Si     Si        0.453743868430823    0.976305227872077    0.357197088253796  0.0000
  Si     Si        0.950308600746389    0.989400277306821    0.634423026919260  0.0000
  Si     Si        0.551107365682530    0.982385371745319    0.616443080476460  0.0000
  Si     Si        0.560421791859872    0.991011741175705    0.111883534948181  0.0000
  Si     Si        0.945762132416490    0.995856906798384    0.116999939688538  0.0000
  Si     Si        0.055527073120685    0.999500573223757    0.883885688696118  0.0000
  Si     Si        0.155525632303778    0.305974087059284    0.277383573040510  0.0000
  Si     Si        0.352940500363213    0.668995072428633    0.276338413627099  0.0000
  Si     Si        0.846934666246019    0.301296072732494    0.716691901176596  0.0000
  Si     Si        0.653668452931471    0.675325982774933    0.712916043025787  0.0000
  Si     Si        0.834123490961999    0.704262477985016    0.712375876052102  0.0000
  Si     Si        0.667519060402462    0.267186923337209    0.715566580817748  0.0000
  Si     Si        0.173493445121332    0.713842675322960    0.276556808017831  0.0000
  Si     Si        0.336290337074906    0.265432928522950    0.271595827764113  0.0000
  Si     Si        0.834477409291571    0.711766095075950    0.011930515648107  0.0000
  Si     Si        0.330888701850137    0.271951801671819    0.971669805551159  0.0000
  Si     Si        0.172000894738874    0.725679081652506    0.978482368699510  0.0000
  Si     Si        0.352872348570505    0.670207492292339    0.977974984819809  0.0000
  Si     Si        0.652148781429285    0.675066020063961    0.010407394153788  0.0000
  Si     Si        0.854030409121349    0.315775832034487    0.019020893790482  0.0000
  O3     O3        0.097890367311064    0.201672938167257    0.368363734788473  0.0000
  O2     O2        0.412486761448347    0.785331820085539    0.362245503087520  0.0000
  O2     O2        0.907340557497970    0.179809668898119    0.639903606200630  0.0000
  O2     O2        0.594129782098724    0.792091323397233    0.627464240802234  0.0000
  O2     O2        0.883918827329805    0.838055978700777    0.627719672208236  0.0000
  O2     O2        0.614838957908994    0.137670155981869    0.629323916188467  0.0000
  O3     O3        0.123695755237546    0.839082868542506    0.365222788333030  0.0000
  O2     O2        0.387285027554772    0.128609415422478    0.356116950739518  0.0000
  O3     O3        0.005482679239630    0.979182572112724    0.515319242522458  0.0000
  O2     O2        0.511446788636626    0.998406434125245    0.477120162554642  0.0000
  O3     O3        0.979515830452621    0.972532679906934    0.257898701751592  0.0000
  O2     O2        0.504223069650974    0.994641262006680    0.230785731110986  0.0000
  O2     O2        0.004460881104293    0.954130413016831    0.759385573986820  0.0000
  O3     O3        0.483306528399577    0.001885300844924    0.718203881022147  0.0000
  O3     O3        0.630132137594627    0.128993288972322    0.127099896207319  0.0000
  O2     O2        0.872877504261933    0.862907018337268    0.098426907487423  0.0000
  O3     O3        0.370365325314378    0.134168309716309    0.879278864801911  0.0000
  O2     O2        0.133983683686419    0.878224541379662    0.889785635681908  0.0000
  O3     O3        0.413111419361220    0.777627530380093    0.895413801674802  0.0000
  O3     O3        0.080907651079062    0.201686352967250    0.883020780831568  0.0000
  O2     O2        0.596461004553392    0.795531032701896    0.095956193646034  0.0000
  O2     O2        0.917456093026720    0.198272829897715    0.096510397737989  0.0000
  O3     O3        0.515690022107892    0.052339456998568    0.982558084809841  0.0000
  O2     O2        0.009536031754861    0.947019547788697    0.011797768181035  0.0000
  O2     O2        0.142156151754656    0.514991328870217    0.289314683839689  0.0000
  O2     O2        0.369318502571445    0.461738477775100    0.297768438219398  0.0000
  O2     O2        0.864400073468965    0.505608546071922    0.686505834736118  0.0000
  O2     O2        0.637077659686222    0.467970284491340    0.695564589953957  0.0000
  O2     O2        0.245875977525621    0.256273071916488    0.312851531669190  0.0000
  O2     O2        0.264922621331490    0.716866195063908    0.318124331973161  0.0000
  O2     O2        0.758200761420781    0.254616795124269    0.673558173632361  0.0000
  O2     O2        0.742465196405935    0.718532263160980    0.673227685128752  0.0000
  O3     O3        0.134923683929765    0.249529424581981    0.132224413943351  0.0000
  O2     O2        0.365675372957785    0.720507992006772    0.127917270041445  0.0000
  O2     O2        0.857506941642276    0.265827830576031    0.868373431237422  0.0000
  O2     O2        0.638867537877550    0.728485497890969    0.860796431034105  0.0000
  O2     O2        0.843713466049437    0.756454320187150    0.861778353532441  0.0000
  O3     O3        0.661797484719155    0.207413190629695    0.862207702573232  0.0000
  O2     O2        0.165306624975172    0.777400218290512    0.128831891304704  0.0000
  O2     O2        0.340937351640281    0.214680198423621    0.121482619901021  0.0000
  O3     O3        0.629013980285449    0.476788428436266    0.034732607082903  0.0000
  O2     O2        0.874732860538246    0.521785333473809    0.040828820756116  0.0000
  O2     O2        0.369874641257170    0.464214143975382    0.955928223046634  0.0000
  O3     O3        0.128396605333885    0.542156161557618    0.955691601297976  0.0000
  O3     O3        0.768306322168516    0.278888887226548    0.068213561669450  0.0000
  O2     O2        0.743338790355916    0.703717422661192    0.047286662493106  0.0000
  O3     O3        0.240811460992872    0.281229901084841    0.930746310913698  0.0000
  O2     O2        0.262659883740898    0.711992484798250    0.939055752598188  0.0000
