data_c00427.vasp
_audit_creation_method             Generated by GULP
_audit_author_name                 Salvador R. G. Balestra
_symmetry_space_group_name_H-M     'P 1             '
_symmetry_Int_Tables_number        1

loop_
_symmetry_equiv_pos_site_id
_symmetry_equiv_pos_as_xyz
_cell_length_a                       17.2570
_cell_length_b                        7.6313
_cell_length_c                       10.2296
_cell_angle_alpha                   90.1239
_cell_angle_beta                    90.3576
_cell_angle_gamma                   89.4466

loop_
_atom_site_label
_atom_site_type_symbol
_atom_site_fract_x
_atom_site_fract_y
_atom_site_fract_z
_atom_site_charge
  Ge     Ge        0.052090000000021    0.000000000000000    0.372269999999958  0.0000
  Ge     Ge        0.058193989623297    0.987118316066290    0.886816590006385  0.0000
  Ge     Ge        0.157465658856596    0.309814357440393    0.273724849109042  0.0000
  Ge     Ge        0.844424281432175    0.288759877965425    0.695153687263556  0.0000
  Si     Si        0.455949554160542    0.978689999881415    0.349290816515043  0.0000
  Si     Si        0.951713664381836    0.981605728724998    0.628660611456824  0.0000
  Si     Si        0.548736558808465    0.981777896722659    0.615572172155421  0.0000
  Si     Si        0.561717867882813    0.980611782692625    0.098949849174084  0.0000
  Si     Si        0.945053646362375    0.977542125587377    0.125472922950104  0.0000
  Si     Si        0.445569541041975    0.968739388456829    0.862655290119171  0.0000
  Si     Si        0.353838493582051    0.670966707528542    0.264325717633981  0.0000
  Si     Si        0.656183758115146    0.678707821527134    0.710031841336868  0.0000
  Si     Si        0.835460295133307    0.698676768824350    0.704614872583961  0.0000
  Si     Si        0.663091979024133    0.274198754996215    0.703691147855888  0.0000
  Si     Si        0.175322694946399    0.720871419362576    0.259929085088328  0.0000
  Si     Si        0.339416835544351    0.270863848116464    0.274474800972460  0.0000
  Si     Si        0.670664266747998    0.270937151305369    0.011282723570217  0.0000
  Si     Si        0.838251742140647    0.687252215761305    0.010782595460678  0.0000
  Si     Si        0.336062462431875    0.260429762393930    0.966931387317851  0.0000
  Si     Si        0.176246998379230    0.700640325388454    0.957288367867974  0.0000
  Si     Si        0.354145407627691    0.655594315022715    0.959368732237727  0.0000
  Si     Si        0.157583756756240    0.300052934765550    0.965262028234106  0.0000
  Si     Si        0.659226283604815    0.668656700253837    0.014609462673169  0.0000
  Si     Si        0.849059417767213    0.286553339879021    0.007911401438051  0.0000
  O1     O1        0.089895226091974    0.205983468887106    0.365595768805985  0.0000
  O2     O2        0.411790469189287    0.793488153763564    0.345605882934952  0.0000
  O3     O3        0.909567885295959    0.167931448310471    0.604974923699208  0.0000
  O2     O2        0.598766558201722    0.803543144140668    0.629128393362953  0.0000
  O2     O2        0.883227940924320    0.837464221161219    0.620989229947641  0.0000
  O2     O2        0.603588516134942    0.149877778447608    0.628744644979748  0.0000
  O3     O3        0.130760499204365    0.865449664520887    0.341780722767057  0.0000
  O2     O2        0.393499970045043    0.136734366466978    0.354932846355590  0.0000
  O3     O3        0.019696324120593    0.951671374386281    0.527438980579298  0.0000
  O2     O2        0.510941033195532    0.984876647415953    0.473884120626317  0.0000
  O3     O3        0.971264167223245    0.972740809103706    0.274740389872228  0.0000
  O2     O2        0.509425556369113    0.002884266318017    0.224219058532106  0.0000
  O3     O3        0.986812782722181    0.969288099585081    0.773574873784772  0.0000
  O2     O2        0.479648839898370    0.989927393976195    0.719248205429703  0.0000
  O2     O2        0.624832665694953    0.134419415230230    0.099011468911827  0.0000
  O2     O2        0.884876557592717    0.821049580137475    0.100256443540136  0.0000
  O2     O2        0.378057017429916    0.112517002601894    0.881882025671928  0.0000
  O3     O3        0.129575155977474    0.828379032834235    0.863683240978744  0.0000
  O2     O2        0.411611647047309    0.772972873091423    0.874502242898271  0.0000
  O3     O3        0.100402676403457    0.191334878931169    0.874352192452929  0.0000
  O2     O2        0.604798142206214    0.791696011990135    0.103014151173850  0.0000
  O2     O2        0.906468645841814    0.166836703046279    0.093735906662960  0.0000
  O2     O2        0.511845641182080    0.003077171720269    0.968297188864440  0.0000
  O3     O3        0.020792187949447    0.949668995937309    0.039619237446203  0.0000
  O3     O3        0.139968660802622    0.531650792754045    0.286780282660555  0.0000
  O2     O2        0.370917923884984    0.467995573615200    0.297274744904320  0.0000
  O3     O3        0.863765028646861    0.506022909144737    0.667511849193181  0.0000
  O2     O2        0.638101061957027    0.476315891382418    0.678788147320878  0.0000
  O3     O3        0.251758680894165    0.260522449400536    0.321740815504632  0.0000
  O2     O2        0.265772916298151    0.717749366950263    0.302306357140192  0.0000
  O3     O3        0.749611205709503    0.244337554930175    0.653175677851223  0.0000
  O2     O2        0.744358824492120    0.720398964078672    0.670844307693778  0.0000
  O3     O3        0.144126821086997    0.241419447530655    0.113881030601371  0.0000
  O2     O2        0.366807347290732    0.706163313986301    0.110766477501459  0.0000
  O3     O3        0.860615459240933    0.238427064086568    0.857746836904815  0.0000
  O2     O2        0.644076944821829    0.717058279131942    0.863409358569577  0.0000
  O2     O2        0.848361556057292    0.734487871923998    0.858931068122743  0.0000
  O2     O2        0.661898953482963    0.229988852048000    0.857783792419281  0.0000
  O2     O2        0.169214790237725    0.769255992050301    0.106374900560097  0.0000
  O2     O2        0.343047658109682    0.220775886126334    0.120893634027510  0.0000
  O2     O2        0.638693004404707    0.466547825522408    0.041691511563298  0.0000
  O2     O2        0.870233608658114    0.489995405695821    0.034111903129827  0.0000
  O2     O2        0.373228876740819    0.450274857088968    0.936104096464996  0.0000
  O2     O2        0.140325335718692    0.506412714849064    0.948826407666652  0.0000
  O2     O2        0.760672435611524    0.254448810682477    0.050558265046801  0.0000
  O2     O2        0.748588386678124    0.701717959653030    0.050811047710984  0.0000
  O2     O2        0.246385431986483    0.259355085498926    0.925462005519757  0.0000
  O2     O2        0.266068998553012    0.694951662726503    0.915929890461925  0.0000
