data_c00475.vasp
_audit_creation_method             Generated by GULP
_audit_author_name                 Salvador R. G. Balestra
_symmetry_space_group_name_H-M     'P 1             '
_symmetry_Int_Tables_number        1

loop_
_symmetry_equiv_pos_site_id
_symmetry_equiv_pos_as_xyz
_cell_length_a                       17.0995
_cell_length_b                        7.6304
_cell_length_c                       10.2915
_cell_angle_alpha                   89.9132
_cell_angle_beta                    90.1853
_cell_angle_gamma                   89.6492

loop_
_atom_site_label
_atom_site_type_symbol
_atom_site_fract_x
_atom_site_fract_y
_atom_site_fract_z
_atom_site_charge
  Ge     Ge        0.052090000000021    0.000000000000000    0.372269999999958  0.0000
  Ge     Ge        0.060269455318655    0.001279761534525    0.893862557910380  0.0000
  Ge     Ge        0.670436051063058    0.275689207791400    0.018621504230522  0.0000
  Ge     Ge        0.337980408289388    0.269807559280230    0.966718222608300  0.0000
  Si     Si        0.452403602029901    0.974602722015796    0.364390601906216  0.0000
  Si     Si        0.953530011358716    0.990456678529301    0.636841771978573  0.0000
  Si     Si        0.556344716641828    0.981180261610352    0.618272910769849  0.0000
  Si     Si        0.558567180821013    0.992652471519154    0.113004033137243  0.0000
  Si     Si        0.945409102710257    0.990106195475524    0.126830703695787  0.0000
  Si     Si        0.451622706085489    0.985889545011834    0.870761331782993  0.0000
  Si     Si        0.158092652962595    0.306657050703942    0.268601224052402  0.0000
  Si     Si        0.353147793513550    0.667359138849497    0.280235505584145  0.0000
  Si     Si        0.848398180164879    0.299991900643030    0.709844076782151  0.0000
  Si     Si        0.659249509352459    0.676953146494011    0.706925819074297  0.0000
  Si     Si        0.839609427260128    0.700314452420509    0.707721775586052  0.0000
  Si     Si        0.668926516170625    0.271462123628797    0.709789855261609  0.0000
  Si     Si        0.174038142537608    0.711794335233745    0.272121404185297  0.0000
  Si     Si        0.337464041915376    0.264013176319571    0.276580937057799  0.0000
  Si     Si        0.836705264708431    0.704216621375422    0.011424376200980  0.0000
  Si     Si        0.180109858664535    0.720009175259944    0.971780834484576  0.0000
  Si     Si        0.361037502742339    0.669864677280979    0.977466297915486  0.0000
  Si     Si        0.155424877078246    0.323250164573860    0.966288704683985  0.0000
  Si     Si        0.654634735557319    0.680016591101183    0.008153390950187  0.0000
  Si     Si        0.853150531915423    0.307321245490290    0.016058890985290  0.0000
  O3     O3        0.095898700726445    0.200802273352741    0.350513874952700  0.0000
  O2     O2        0.410523027064652    0.785042592923271    0.367977231934009  0.0000
  O2     O2        0.907553071733953    0.176879892558162    0.630472422883284  0.0000
  O2     O2        0.603471026091977    0.796890521619156    0.617603041067479  0.0000
  O2     O2        0.890403103212674    0.833116963146814    0.621836658931869  0.0000
  O2     O2        0.616756882419045    0.142700395027499    0.622394644621901  0.0000
  O3     O3        0.121296929068275    0.836449310634798    0.358154747511877  0.0000
  O2     O2        0.387153889237521    0.128371287363803    0.364199426142536  0.0000
  O3     O3        0.019353384011477    0.986090358657855    0.529711217825738  0.0000
  O2     O2        0.506495611147363    0.996435909906429    0.488614677245153  0.0000
  O3     O3        0.970033460574680    0.979878837143619    0.275856324101936  0.0000
  O2     O2        0.506899953733503    0.989808078612581    0.239845487943229  0.0000
  O3     O3        0.993740349005150    0.962351639914512    0.775493075339107  0.0000
  O2     O2        0.497087283847636    0.988867735243490    0.737061945683910  0.0000
  O3     O3        0.624812543489981    0.137491063308008    0.124565921758160  0.0000
  O2     O2        0.877131696273862    0.850171564290550    0.099155228745786  0.0000
  O3     O3        0.380308680076781    0.120468858120056    0.864427822711016  0.0000
  O3     O3        0.140492049349944    0.861785369712821    0.880630065956623  0.0000
  O2     O2        0.420041937450270    0.790708368729632    0.897506450010573  0.0000
  O3     O3        0.092583151688074    0.215501521719448    0.885215267705759  0.0000
  O2     O2        0.598994897948644    0.803556425549576    0.092726880797468  0.0000
  O2     O2        0.916517999101625    0.187095029457439    0.089626871065258  0.0000
  O2     O2        0.506886285262984    0.051177187755661    0.988425102269633  0.0000
  O3     O3        0.020611679290193    0.946142252412681    0.042080529867777  0.0000
  O2     O2        0.143213769430164    0.513490507094184    0.286960378809556  0.0000
  O2     O2        0.368897646202513    0.460959141991043    0.302869488996681  0.0000
  O2     O2        0.868877782516030    0.502164671305190    0.679851630859642  0.0000
  O2     O2        0.639892463256770    0.471950707801960    0.688534328904176  0.0000
  O2     O2        0.245960596118271    0.254846881766015    0.314688900617731  0.0000
  O2     O2        0.264374153384611    0.716572341006643    0.318046356092367  0.0000
  O2     O2        0.759695516996778    0.257558638315608    0.667241268281454  0.0000
  O2     O2        0.748671076616634    0.715873422150229    0.667971206040303  0.0000
  O2     O2        0.148657244290632    0.258524794150761    0.116472744208103  0.0000
  O2     O2        0.369655229205195    0.713939222432356    0.130187412435146  0.0000
  O2     O2        0.857891723851715    0.263191067035442    0.863052959022190  0.0000
  O2     O2        0.644439524318742    0.730244944308949    0.856416516779026  0.0000
  O2     O2        0.848558097964150    0.748292883243513    0.859698342181419  0.0000
  O3     O3        0.661597455566741    0.213265806631166    0.858365011316513  0.0000
  O2     O2        0.170001257445584    0.775901595213315    0.122602569475235  0.0000
  O3     O3        0.346659637829768    0.209799091584607    0.127585982368104  0.0000
  O3     O3        0.630929223521507    0.482808591122564    0.034603281864368  0.0000
  O2     O2        0.873379161421043    0.512103092889934    0.041066413472584  0.0000
  O3     O3        0.382369475788447    0.471325600445580    0.948579257954832  0.0000
  O2     O2        0.139593328667695    0.530653247172516    0.952015230945773  0.0000
  O3     O3        0.767078162859026    0.270337561936960    0.065908169580666  0.0000
  O2     O2        0.745357241641734    0.705339496971395    0.047152388314505  0.0000
  O3     O3        0.242071476753859    0.279801897224884    0.918238466567652  0.0000
  O2     O2        0.271391025730450    0.705925352590190    0.935489985048842  0.0000
