data_c00419.vasp
_audit_creation_method             Generated by GULP
_audit_author_name                 Salvador R. G. Balestra
_symmetry_space_group_name_H-M     'P 1             '
_symmetry_Int_Tables_number        1

loop_
_symmetry_equiv_pos_site_id
_symmetry_equiv_pos_as_xyz
_cell_length_a                       17.0175
_cell_length_b                        7.5731
_cell_length_c                       10.4486
_cell_angle_alpha                   89.3499
_cell_angle_beta                    91.0168
_cell_angle_gamma                   90.2558

loop_
_atom_site_label
_atom_site_type_symbol
_atom_site_fract_x
_atom_site_fract_y
_atom_site_fract_z
_atom_site_charge
  Ge     Ge        0.052090000000021    0.000000000000000    0.372269999999958  0.0000
  Ge     Ge        0.437989133718443    0.032314888120359    0.852743265367063  0.0000
  Ge     Ge        0.850364717274797    0.679710453861152    0.023824332595909  0.0000
  Ge     Ge        0.323656320434509    0.751141697047619    0.967386936367561  0.0000
  Si     Si        0.455322688203019    0.019783415989932    0.350219972254270  0.0000
  Si     Si        0.951443892477540    0.012279409077587    0.634164885494677  0.0000
  Si     Si        0.551346340804943    0.025416707233968    0.609344714405615  0.0000
  Si     Si        0.550330845227843    0.997565215659375    0.094708539307766  0.0000
  Si     Si        0.941630918224771    0.000781945961736    0.123343384215115  0.0000
  Si     Si        0.051597110371910    0.007150255899795    0.890647205856951  0.0000
  Si     Si        0.175189527266500    0.283013895972099    0.277495591418673  0.0000
  Si     Si        0.334531277362072    0.739955375095479    0.270123545549711  0.0000
  Si     Si        0.834265029904594    0.296904615247553    0.714063033649759  0.0000
  Si     Si        0.667452938724642    0.734408477817112    0.714187857968796  0.0000
  Si     Si        0.847971253026967    0.704440348665324    0.719543753000775  0.0000
  Si     Si        0.653532587933548    0.329645919549318    0.702638282652817  0.0000
  Si     Si        0.154582963727445    0.687685307237364    0.279911964087755  0.0000
  Si     Si        0.354983073795023    0.331911236421177    0.264556921627228  0.0000
  Si     Si        0.646404937668484    0.316971797537567    0.999459273206623  0.0000
  Si     Si        0.349498502496672    0.346620450812201    0.968732092277372  0.0000
  Si     Si        0.141428122288053    0.684693178214670    0.981205820158565  0.0000
  Si     Si        0.167362124911346    0.288382742468456    0.980472194279082  0.0000
  Si     Si        0.665690938305203    0.715311619662050    0.014059657620754  0.0000
  Si     Si        0.828159273161346    0.273810681424429    0.012547197436005  0.0000
  O3     O3        0.129185745023117    0.148246981821659    0.365224289668318  0.0000
  O2     O2        0.386992284157908    0.870797229634083    0.357771144170842  0.0000
  O2     O2        0.886439294664507    0.168077599200719    0.629837603124589  0.0000
  O2     O2        0.615234734520771    0.872271614610484    0.634228427847162  0.0000
  O2     O2        0.906718041309519    0.823250796404147    0.635217365164821  0.0000
  O2     O2        0.594945725212592    0.215504836107115    0.614420314461501  0.0000
  O3     O3        0.092874608310918    0.792317669117414    0.362114634958424  0.0000
  O2     O2        0.416822097678288    0.215213526334633    0.347220457879486  0.0000
  O3     O3        0.006811529714698    0.025219450027244    0.515206476132065  0.0000
  O2     O2        0.513148410901087    0.001097698734768    0.470667625069822  0.0000
  O3     O3        0.980602731500837    0.043178650668303    0.257986306141514  0.0000
  O2     O2        0.507177752374449    0.987021226684478    0.227501668522182  0.0000
  O2     O2        0.006358675642055    0.037217367505016    0.758658621283086  0.0000
  O3     O3        0.481838969412925    0.013988547603037    0.708824687836225  0.0000
  O2     O2        0.585850660428904    0.194510647630886    0.075197448841942  0.0000
  O3     O3        0.915984230844310    0.796614736553321    0.117092427149696  0.0000
  O3     O3        0.407068391653375    0.245189552302227    0.877322429785270  0.0000
  O2     O2        0.076867796572021    0.801671615439324    0.903949529728926  0.0000
  O1     O1        0.356615177126353    0.899518642651929    0.859289317001835  0.0000
  O2     O2        0.127010848577037    0.138171519772440    0.893880726727071  0.0000
  O2     O2        0.619270098679519    0.852594646597121    0.099044141150024  0.0000
  O2     O2        0.862226476552068    0.114561881185645    0.098849363749145  0.0000
  O3     O3        0.493498448761883    0.947185774474934    0.978483014171582  0.0000
  O2     O2        0.999171447058880    0.059143494939248    0.009981614122906  0.0000
  O2     O2        0.142281188940768    0.479139995758610    0.301631490953617  0.0000
  O2     O2        0.368854531694373    0.540915087750963    0.283510505308800  0.0000
  O2     O2        0.864532308025190    0.497671456099705    0.695784183728916  0.0000
  O2     O2        0.637005919393099    0.537139782126691    0.681742093553541  0.0000
  O2     O2        0.267955935021214    0.279714241571447    0.310406993811888  0.0000
  O2     O2        0.244294557464944    0.741492798004613    0.316776314990801  0.0000
  O2     O2        0.743244575078432    0.284889194123526    0.668751276746271  0.0000
  O2     O2        0.758575428125823    0.751794128695239    0.676840714773193  0.0000
  O2     O2        0.162661863160962    0.229647423041583    0.129033566091211  0.0000
  O3     O3        0.336308260260613    0.811057807958022    0.125712746866937  0.0000
  O2     O2        0.840253577290697    0.237735240449519    0.862129404644797  0.0000
  O2     O2        0.661107671302984    0.773706034714520    0.864600253278531  0.0000
  O3     O3        0.862767168773344    0.747466915611853    0.867174143058789  0.0000
  O2     O2        0.634933078797488    0.274755932682082    0.848991394885666  0.0000
  O2     O2        0.137779011314056    0.736740890899976    0.130810618105032  0.0000
  O2     O2        0.365685972273979    0.283495124461660    0.115926623956673  0.0000
  O2     O2        0.626795091213951    0.520249389703370    0.027680316152680  0.0000
  O3     O3        0.869166873226946    0.457838641362279    0.046522551582962  0.0000
  O3     O3        0.368767943995952    0.549614880319560    0.950101852858671  0.0000
  O2     O2        0.122993604129667    0.476287915067417    0.961432728613389  0.0000
  O2     O2        0.735805811721218    0.279812253172703    0.042201070013450  0.0000
  O3     O3        0.754125442179008    0.713413040121136    0.064461091055745  0.0000
  O2     O2        0.257347141536552    0.306955035632358    0.937456649226340  0.0000
  O3     O3        0.225627522673716    0.727833971728452    0.928344195439626  0.0000
