data_c00462.vasp
_audit_creation_method             Generated by GULP
_audit_author_name                 Salvador R. G. Balestra
_symmetry_space_group_name_H-M     'P 1             '
_symmetry_Int_Tables_number        1

loop_
_symmetry_equiv_pos_site_id
_symmetry_equiv_pos_as_xyz
_cell_length_a                       17.2165
_cell_length_b                        7.6348
_cell_length_c                       10.2491
_cell_angle_alpha                   89.5245
_cell_angle_beta                    90.5172
_cell_angle_gamma                   90.4777

loop_
_atom_site_label
_atom_site_type_symbol
_atom_site_fract_x
_atom_site_fract_y
_atom_site_fract_z
_atom_site_charge
  Ge     Ge        0.052090000000021    0.000000000000000    0.372269999999958  0.0000
  Ge     Ge        0.051391690106820    0.007217437391160    0.882842007587042  0.0000
  Ge     Ge        0.832461146482293    0.304887286074711    0.700903956852295  0.0000
  Ge     Ge        0.172516844152872    0.292156076197188    0.964272248049404  0.0000
  Si     Si        0.451639415858608    0.023406299079500    0.355849967993982  0.0000
  Si     Si        0.946043433923441    0.015437368303875    0.625242454866441  0.0000
  Si     Si        0.544138450455583    0.023995666386552    0.623050206967049  0.0000
  Si     Si        0.559009370238795    0.012376627228178    0.107849124021193  0.0000
  Si     Si        0.942969410539635    0.016488636660420    0.125455763467657  0.0000
  Si     Si        0.443156987766046    0.026513664203963    0.873117165083459  0.0000
  Si     Si        0.171594258536132    0.289340017111494    0.270628125066085  0.0000
  Si     Si        0.336148273296786    0.732305188258639    0.273923798681658  0.0000
  Si     Si        0.658979687047698    0.732645894863982    0.714344323888336  0.0000
  Si     Si        0.838362384002583    0.714769667677920    0.702492022374076  0.0000
  Si     Si        0.649933700947549    0.328703236087780    0.709977786389170  0.0000
  Si     Si        0.157494774129636    0.699306554711723    0.269146227261417  0.0000
  Si     Si        0.348389830311674    0.332476323997504    0.273256865890651  0.0000
  Si     Si        0.655815985196285    0.327175879717195    0.016002919395298  0.0000
  Si     Si        0.846229222988160    0.705769375943502    0.008458813002449  0.0000
  Si     Si        0.352387666584372    0.343932287916126    0.964832016230435  0.0000
  Si     Si        0.152205767938778    0.696992606640932    0.970036798295708  0.0000
  Si     Si        0.332974472195745    0.736775679385141    0.968921770773892  0.0000
  Si     Si        0.667135466674821    0.725325479431087    0.019166592955764  0.0000
  Si     Si        0.835351127781026    0.304043279708200    0.012688829161905  0.0000
  O3     O3        0.117182303971847    0.171750163157561    0.360734265087254  0.0000
  O2     O2        0.386845710361401    0.869597650724023    0.356567083306030  0.0000
  O3     O3        0.889967808592342    0.180308123730891    0.602992640253415  0.0000
  O2     O2        0.605842025885624    0.867161829661339    0.634585738518885  0.0000
  O2     O2        0.891676791672828    0.841731298493960    0.615446555052715  0.0000
  O2     O2        0.587454912968990    0.211152820337397    0.632816263111830  0.0000
  O3     O3        0.098965394680899    0.801870161538154    0.358593268487680  0.0000
  O2     O2        0.409808660322382    0.211386902995475    0.349238210057849  0.0000
  O3     O3        0.017425598152729    0.008102141348558    0.529609204023596  0.0000
  O2     O2        0.502436467599305    0.010370125974916    0.485057330112822  0.0000
  O3     O3        0.970757789572807    0.013400380330845    0.274038710298901  0.0000
  O2     O2        0.509411932390120    0.998984141628770    0.236789619500861  0.0000
  O3     O3        0.978739697280612    0.029747523741995    0.772015157581874  0.0000
  O2     O2        0.478198212072786    0.005877049327660    0.731210324132977  0.0000
  O2     O2        0.600371136524620    0.202661286720544    0.101328670188332  0.0000
  O2     O2        0.905755213413106    0.827452028686508    0.087578472962887  0.0000
  O2     O2        0.415240301816523    0.225908179468936    0.892073187990861  0.0000
  O3     O3        0.094685397852531    0.803914922819419    0.878363965371483  0.0000
  O2     O2        0.371251308191195    0.890737812446068    0.883682589413954  0.0000
  O1     O1        0.124079100471886    0.158403780565215    0.860936068228461  0.0000
  O2     O2        0.623349438208425    0.860037094442323    0.111333859751201  0.0000
  O2     O2        0.880885704520605    0.171901990284636    0.107145074679572  0.0000
  O2     O2        0.506109668210280    0.976274211599396    0.981974989375311  0.0000
  O3     O3        0.016483308924098    0.054309443278171    0.036482846521146  0.0000
  O2     O2        0.143778593686471    0.490942500677520    0.277362728164380  0.0000
  O2     O2        0.366063583594970    0.535917019067538    0.304738202365205  0.0000
  O3     O3        0.858403414823795    0.518821098119057    0.668044984191437  0.0000
  O2     O2        0.632853742390605    0.533768319064152    0.683335207554214  0.0000
  O2     O2        0.261559691191213    0.281324266762512    0.318507431685532  0.0000
  O2     O2        0.245873214252534    0.747100757193694    0.312419186572966  0.0000
  O3     O3        0.735181104325232    0.279896384037655    0.663937772575729  0.0000
  O2     O2        0.748256426572261    0.758299758189911    0.671925723726890  0.0000
  O3     O3        0.166605011369123    0.218897105157408    0.124281699809299  0.0000
  O2     O2        0.344624641344607    0.779248455793716    0.121327706402095  0.0000
  O3     O3        0.847075955079736    0.252644898925694    0.863561758474573  0.0000
  O2     O2        0.652142204507421    0.772580636850868    0.867730479190582  0.0000
  O2     O2        0.855827927039028    0.748116303696483    0.855675916577495  0.0000
  O2     O2        0.641983098683185    0.286982184695944    0.863871965866712  0.0000
  O2     O2        0.142074829596063    0.762632880516606    0.119751312961145  0.0000
  O2     O2        0.355195000772198    0.300495192392688    0.119033917627316  0.0000
  O2     O2        0.636437033553140    0.528465302518815    0.048279251459777  0.0000
  O2     O2        0.866771788255420    0.502566005837826    0.035229621661954  0.0000
  O2     O2        0.372109468279843    0.549283421195787    0.938667969097385  0.0000
  O3     O3        0.130698875312347    0.496219295067859    0.955848039614313  0.0000
  O2     O2        0.745164265723482    0.290366188003161    0.051068603388774  0.0000
  O2     O2        0.758382863413528    0.741976991554140    0.052286720099143  0.0000
  O3     O3        0.267402631792909    0.301075508747684    0.912541616630117  0.0000
  O2     O2        0.242322549492098    0.728263690335149    0.931361890229317  0.0000
