data_c00410.vasp
_audit_creation_method             Generated by GULP
_audit_author_name                 Salvador R. G. Balestra
_symmetry_space_group_name_H-M     'P 1             '
_symmetry_Int_Tables_number        1

loop_
_symmetry_equiv_pos_site_id
_symmetry_equiv_pos_as_xyz
_cell_length_a                       16.9528
_cell_length_b                        7.5998
_cell_length_c                       10.4829
_cell_angle_alpha                   90.2624
_cell_angle_beta                    90.7491
_cell_angle_gamma                   90.1185

loop_
_atom_site_label
_atom_site_type_symbol
_atom_site_fract_x
_atom_site_fract_y
_atom_site_fract_z
_atom_site_charge
  Ge     Ge        0.052090000000021    0.000000000000000    0.372269999999958  0.0000
  Ge     Ge        0.442942959849690    0.980737280672508    0.867299913581630  0.0000
  Ge     Ge        0.670886837362262    0.261159409764118    0.011448747119677  0.0000
  Ge     Ge        0.828918252078618    0.720450560411058    0.013672164057229  0.0000
  Si     Si        0.455429586726511    0.977926614806194    0.354633141488534  0.0000
  Si     Si        0.949929492330240    0.994703378542153    0.632932043038808  0.0000
  Si     Si        0.550029422802830    0.976254575738472    0.616392432286041  0.0000
  Si     Si        0.557230950265524    0.981108600495037    0.105850120594001  0.0000
  Si     Si        0.941242610269486    0.002638918405372    0.119951374842796  0.0000
  Si     Si        0.051068271056874    0.981521344499530    0.888080446850355  0.0000
  Si     Si        0.156519982397586    0.305828200929045    0.280469308519051  0.0000
  Si     Si        0.353300981775343    0.670404223898649    0.264704547831818  0.0000
  Si     Si        0.848177876492183    0.306120872770808    0.715588659802693  0.0000
  Si     Si        0.651370914455979    0.666701958641385    0.709881794833773  0.0000
  Si     Si        0.831612555529549    0.710723014500391    0.710923742970665  0.0000
  Si     Si        0.667817518339944    0.261629330068933    0.709042161329978  0.0000
  Si     Si        0.171984539734518    0.711191398420752    0.273396536926009  0.0000
  Si     Si        0.338550743651232    0.265194118675597    0.267742258455678  0.0000
  Si     Si        0.327720942092114    0.259548771390873    0.972330892430550  0.0000
  Si     Si        0.165858449011815    0.700179827398394    0.977738080265121  0.0000
  Si     Si        0.348455670126366    0.660288139508638    0.968974311833263  0.0000
  Si     Si        0.145210911254971    0.299815497209111    0.986152576260484  0.0000
  Si     Si        0.644061908402216    0.659083592597440    0.007943462618006  0.0000
  Si     Si        0.855590128715664    0.322282860274503    0.014204350906574  0.0000
  O3     O3        0.099616947193479    0.200859456605853    0.371380585893518  0.0000
  O2     O2        0.413011971275767    0.787846082355490    0.349076668293128  0.0000
  O2     O2        0.908977466657614    0.187220350910141    0.636483061062568  0.0000
  O2     O2        0.589470598113754    0.783330536113262    0.630007897120457  0.0000
  O2     O2        0.882412332446149    0.843864457336268    0.625781660911644  0.0000
  O2     O2        0.617231873465690    0.126950550058879    0.622421718304080  0.0000
  O3     O3        0.123896929453416    0.840432621079559    0.361037426388920  0.0000
  O2     O2        0.390261385160132    0.132928703728816    0.353234146249088  0.0000
  O3     O3        0.004936873596105    0.976840401668630    0.513637910389869  0.0000
  O2     O2        0.507170948191681    0.989949052638742    0.481118026874345  0.0000
  O3     O3        0.981257415653043    0.980110056333518    0.255345891664671  0.0000
  O2     O2        0.513190364720729    0.001821295087471    0.237400739733419  0.0000
  O2     O2        0.004610916509363    0.965412250981137    0.756667661091539  0.0000
  O3     O3        0.484673982142596    0.006551312577952    0.721881174831795  0.0000
  O3     O3        0.634697668082604    0.101608958400962    0.109385120149370  0.0000
  O3     O3        0.863703853963580    0.882012850529003    0.113300551025903  0.0000
  O3     O3        0.363305135492560    0.121973727343482    0.876627535191593  0.0000
  O2     O2        0.121145743169316    0.838195792113467    0.887355297820001  0.0000
  O3     O3        0.407048897673124    0.768460898773851    0.882483966608350  0.0000
  O2     O2        0.085473608529057    0.179464848898534    0.903471582400819  0.0000
  O2     O2        0.580744029043029    0.777549374245590    0.081905597694893  0.0000
  O2     O2        0.917323974037482    0.205422507237678    0.094811044660722  0.0000
  O3     O3        0.505700912466899    0.049934017322027    0.987153134831766  0.0000
  O2     O2        0.995230313318080    0.930309964830196    0.005066218598540  0.0000
  O2     O2        0.143545613341863    0.512700379929173    0.300344024490933  0.0000
  O2     O2        0.369116219099826    0.464587315303604    0.290706795661182  0.0000
  O2     O2        0.865598613683376    0.512810438142795    0.694027644982591  0.0000
  O2     O2        0.633952721142585    0.459326498053581    0.690196087152045  0.0000
  O2     O2        0.247386682363613    0.252757006659929    0.308167940669509  0.0000
  O2     O2        0.265071738007015    0.723251810005002    0.304102890152416  0.0000
  O2     O2        0.759502936051300    0.259514412476166    0.668469219299365  0.0000
  O2     O2        0.739936922973133    0.711925182697626    0.665700143446148  0.0000
  O2     O2        0.132720760029230    0.252389953411243    0.134732357131186  0.0000
  O2     O2        0.366753192903372    0.714558126821149    0.116155786888445  0.0000
  O2     O2        0.857513226173437    0.263324226358356    0.865218334369954  0.0000
  O2     O2        0.640951342691566    0.714876357049337    0.858441218496425  0.0000
  O3     O3        0.835568615766232    0.777483068246509    0.855393958642514  0.0000
  O3     O3        0.662523263168696    0.197874136944179    0.853547949000682  0.0000
  O2     O2        0.157050335198011    0.759759321260099    0.124937203779787  0.0000
  O2     O2        0.346317091397312    0.209210863994618    0.119833618357234  0.0000
  O3     O3        0.620709993071830    0.458223375321877    0.026245677028704  0.0000
  O3     O3        0.878928078854171    0.523506423247806    0.032883330750489  0.0000
  O2     O2        0.363086692194339    0.453647653329317    0.946912933043667  0.0000
  O2     O2        0.128180124300419    0.505440324409189    0.959203540164926  0.0000
  O3     O3        0.766990634301224    0.292146313820453    0.059785922888286  0.0000
  O3     O3        0.732313511596237    0.691126214251691    0.057441763921761  0.0000
  O2     O2        0.234119745714190    0.258508787330925    0.947719908626117  0.0000
  O2     O2        0.256968791582926    0.702853308247412    0.937735930027709  0.0000
