data_c00482.vasp
_audit_creation_method             Generated by GULP
_audit_author_name                 Salvador R. G. Balestra
_symmetry_space_group_name_H-M     'P 1             '
_symmetry_Int_Tables_number        1

loop_
_symmetry_equiv_pos_site_id
_symmetry_equiv_pos_as_xyz
_cell_length_a                       17.1349
_cell_length_b                        7.5910
_cell_length_c                       10.2605
_cell_angle_alpha                   90.4376
_cell_angle_beta                    90.6423
_cell_angle_gamma                   90.4289

loop_
_atom_site_label
_atom_site_type_symbol
_atom_site_fract_x
_atom_site_fract_y
_atom_site_fract_z
_atom_site_charge
  Ge     Ge        0.052090000000021    0.000000000000000    0.372269999999958  0.0000
  Ge     Ge        0.054160185674005    0.979088504187861    0.870504736935664  0.0000
  Ge     Ge        0.850696543851441    0.683321428855554    0.041330265540581  0.0000
  Ge     Ge        0.147103900994382    0.657440674633921    0.983466218688016  0.0000
  Si     Si        0.452867098792693    0.017007956959673    0.382500819393269  0.0000
  Si     Si        0.945526196981283    0.000662032880090    0.623275895887799  0.0000
  Si     Si        0.547796623080988    0.006151064461341    0.646522370891221  0.0000
  Si     Si        0.556376260160172    0.004439653089455    0.133891845694406  0.0000
  Si     Si        0.947612583145958    0.005038242645356    0.116244494094998  0.0000
  Si     Si        0.441645018607789    0.999736275475659    0.896582344737095  0.0000
  Si     Si        0.173914926909090    0.279380169116461    0.299907549477255  0.0000
  Si     Si        0.334202865372762    0.727098402406671    0.285530365502519  0.0000
  Si     Si        0.831339862784165    0.289036565389327    0.728420353136622  0.0000
  Si     Si        0.664753912965435    0.719959916538922    0.733566394872832  0.0000
  Si     Si        0.844379748181209    0.695941113913843    0.731190046377102  0.0000
  Si     Si        0.652678126842354    0.314663371079057    0.727591316837393  0.0000
  Si     Si        0.155476955612708    0.687831569564955    0.290336035454488  0.0000
  Si     Si        0.353385272864326    0.325233415863289    0.296017546077790  0.0000
  Si     Si        0.651478477921218    0.317682874189056    0.031425745945929  0.0000
  Si     Si        0.350615457431982    0.316733138099692    0.993649878137376  0.0000
  Si     Si        0.329713476386189    0.709580473725964    0.979035594407963  0.0000
  Si     Si        0.170041229873856    0.252688104920178    0.999206945792403  0.0000
  Si     Si        0.667002002505215    0.716390090009497    0.039070401913558  0.0000
  Si     Si        0.831047421501756    0.279437944126664    0.034247564801242  0.0000
  O3     O3        0.124582754871577    0.158941290883370    0.395188554243060  0.0000
  O2     O2        0.385359879196256    0.870777625202020    0.362815178952657  0.0000
  O2     O2        0.884589486680200    0.158558228009814    0.645905321430674  0.0000
  O2     O2        0.612112032403604    0.852069855406128    0.650372511034076  0.0000
  O2     O2        0.903000603270589    0.812716713107359    0.645956629855500  0.0000
  O2     O2        0.592272021254118    0.194693319889107    0.644858153100713  0.0000
  O3     O3        0.096405234731684    0.796524499907624    0.378819144379249  0.0000
  O2     O2        0.413685106155003    0.210401603409417    0.380752215054408  0.0000
  O3     O3        0.975502960879469    0.009342758267059    0.477738236429126  0.0000
  O2     O2        0.494449808880288    0.986300444108978    0.519641566669755  0.0000
  O3     O3        0.009726266985465    0.052697892767187    0.224834457920505  0.0000
  O2     O2        0.518757630904803    0.998284792584594    0.274555880906759  0.0000
  O3     O3        0.022069526383462    0.019203442983043    0.714412670565383  0.0000
  O2     O2        0.491728257029564    0.987115318297369    0.768314721855865  0.0000
  O2     O2        0.594007370658755    0.197369096446182    0.114530535933644  0.0000
  O3     O3        0.918056397032732    0.804058926995386    0.130362887510473  0.0000
  O2     O2        0.404108841278072    0.193436756765579    0.904888688352407  0.0000
  O1     O1        0.080223294110702    0.763101371275538    0.888789920051266  0.0000
  O2     O2        0.374050098879004    0.851557394811562    0.891053584996742  0.0000
  O3     O3        0.138279692355756    0.098553294937720    0.908345991512516  0.0000
  O2     O2        0.622002755533839    0.854969021436993    0.128036260742747  0.0000
  O2     O2        0.869800601849957    0.126230403535926    0.118814212856742  0.0000
  O2     O2        0.493231885596460    0.959217988725596    0.023206339535396  0.0000
  O3     O3        0.983163900631132    0.043680077906972    0.975642413936405  0.0000
  O2     O2        0.142823408985620    0.479061286777090    0.307501999633851  0.0000
  O2     O2        0.368063051109788    0.533472436454773    0.318015992181586  0.0000
  O2     O2        0.860441141984252    0.489093119414678    0.705091665234462  0.0000
  O2     O2        0.635737224726736    0.520512545892988    0.704130689968830  0.0000
  O2     O2        0.265461065311463    0.276661735701501    0.337779562429897  0.0000
  O2     O2        0.244573511525371    0.739727147052005    0.330834579252374  0.0000
  O2     O2        0.740839683270701    0.269953936017902    0.684335795406700  0.0000
  O2     O2        0.754999217586414    0.740505207781595    0.692754313925979  0.0000
  O2     O2        0.163252310124418    0.203982787889821    0.152389741709939  0.0000
  O2     O2        0.334883392215086    0.764145983630022    0.131498837080298  0.0000
  O2     O2        0.838089352431044    0.241283643137988    0.879969319803189  0.0000
  O2     O2        0.659839233638850    0.766768062325336    0.886647134799170  0.0000
  O3     O3        0.862790648338504    0.742209652376987    0.880243054069970  0.0000
  O2     O2        0.640957857418990    0.268757006939158    0.879221388998388  0.0000
  O3     O3        0.137682643014392    0.737369090482389    0.141287378430492  0.0000
  O2     O2        0.367622831021030    0.274812827176025    0.145184236186787  0.0000
  O2     O2        0.630592921238889    0.521016343524770    0.058322720215045  0.0000
  O3     O3        0.871866361117766    0.464963871957000    0.065862933134766  0.0000
  O2     O2        0.370743622283688    0.519125577799164    0.961089573669243  0.0000
  O3     O3        0.125818730664476    0.435267192039432    0.974045655026133  0.0000
  O2     O2        0.740643576489658    0.285777083679522    0.074213330942312  0.0000
  O3     O3        0.755913126939490    0.721188835823960    0.084956236760330  0.0000
  O2     O2        0.260107157970925    0.283722246820789    0.962497637528989  0.0000
  O3     O3        0.241096232189920    0.700241107629594    0.932371833017256  0.0000
