data_c00424.vasp
_audit_creation_method             Generated by GULP
_audit_author_name                 Salvador R. G. Balestra
_symmetry_space_group_name_H-M     'P 1             '
_symmetry_Int_Tables_number        1

loop_
_symmetry_equiv_pos_site_id
_symmetry_equiv_pos_as_xyz
_cell_length_a                       16.9955
_cell_length_b                        7.6050
_cell_length_c                       10.3975
_cell_angle_alpha                   88.8209
_cell_angle_beta                    90.1738
_cell_angle_gamma                   90.7202

loop_
_atom_site_label
_atom_site_type_symbol
_atom_site_fract_x
_atom_site_fract_y
_atom_site_fract_z
_atom_site_charge
  Ge     Ge        0.052090000000021    0.000000000000000    0.372269999999958  0.0000
  Ge     Ge        0.444737507273114    0.048817678524311    0.864638888247563  0.0000
  Ge     Ge        0.356979606468449    0.379854258873238    0.959057348127201  0.0000
  Ge     Ge        0.169426210666718    0.322464769194832    0.964168167525463  0.0000
  Si     Si        0.455513729128420    0.024169812199702    0.356764714871437  0.0000
  Si     Si        0.950117694913655    0.012892724578465    0.633610305339772  0.0000
  Si     Si        0.549509068041293    0.017673587859570    0.617727306139259  0.0000
  Si     Si        0.557546036805181    0.006976440308208    0.106046826194051  0.0000
  Si     Si        0.945416932388714    0.012704633522824    0.118647786677719  0.0000
  Si     Si        0.056917651783273    0.029653407915102    0.883312308895302  0.0000
  Si     Si        0.174736399285013    0.290373183361238    0.267696075406913  0.0000
  Si     Si        0.338071650288889    0.740044334110365    0.282074102162737  0.0000
  Si     Si        0.835165926824794    0.299965044626660    0.715231172095901  0.0000
  Si     Si        0.664556894043250    0.728671550894529    0.714375695849311  0.0000
  Si     Si        0.845464144016681    0.703328961583103    0.709304099607197  0.0000
  Si     Si        0.653375341885977    0.323771819848365    0.717373006971948  0.0000
  Si     Si        0.156432317775461    0.697932150433937    0.284956215646103  0.0000
  Si     Si        0.354599433894129    0.336284440512881    0.266337140405020  0.0000
  Si     Si        0.653162122788156    0.326605578539690    0.016167426156356  0.0000
  Si     Si        0.850392924619287    0.698918682461932    0.010120315256569  0.0000
  Si     Si        0.149134888259947    0.716514558772232    0.992247204323806  0.0000
  Si     Si        0.332936078639167    0.772815082878507    0.984849928433541  0.0000
  Si     Si        0.668839812127860    0.726344471560353    0.014743233309787  0.0000
  Si     Si        0.835309794248879    0.299785534096443    0.015665447916793  0.0000
  O3     O3        0.123545717892335    0.160525172101023    0.355198445166747  0.0000
  O2     O2        0.388779028362807    0.870678436345943    0.371093228526049  0.0000
  O2     O2        0.886187164795746    0.169275199020728    0.631627014391740  0.0000
  O2     O2        0.611976550380526    0.860461991884965    0.630360724117152  0.0000
  O2     O2        0.903102528650788    0.826532398970208    0.623705321239334  0.0000
  O2     O2        0.593208333299379    0.204955241405506    0.637985794794017  0.0000
  O3     O3        0.097653424380047    0.797092359665401    0.376399814764454  0.0000
  O2     O2        0.415118708473353    0.214702861091911    0.346861519037931  0.0000
  O3     O3        0.009919846050992    0.035873438934187    0.519256764234968  0.0000
  O2     O2        0.513168086287360    0.018366291709152    0.477054975148901  0.0000
  O3     O3        0.977103317082144    0.013269616832058    0.261635685632027  0.0000
  O2     O2        0.508633129833785    0.984604037408642    0.234708023730874  0.0000
  O2     O2        0.996983067188891    0.016240676397836    0.767044415616482  0.0000
  O3     O3        0.479167910327335    0.990947354451133    0.717295719266968  0.0000
  O2     O2        0.595026086254736    0.204424519994556    0.100794008173319  0.0000
  O2     O2        0.910332079620554    0.818916833483588    0.089315368606826  0.0000
  O1     O1        0.424264801463149    0.266496393502865    0.871632402256473  0.0000
  O2     O2        0.104769957555962    0.848485179233758    0.896197752870956  0.0000
  O3     O3        0.355712201683819    0.938618997082258    0.898231645828107  0.0000
  O3     O3        0.117558224797504    0.187919326038468    0.861952600648672  0.0000
  O2     O2        0.626483739330484    0.862376898181074    0.105657912936875  0.0000
  O2     O2        0.877740227214788    0.158765755689790    0.106475239932791  0.0000
  O3     O3        0.505747098431035    0.967943816113215    0.982832922568221  0.0000
  O2     O2        0.013042558377873    0.066534527526767    0.017525402762269  0.0000
  O2     O2        0.143295891231380    0.488731039216681    0.286210456869028  0.0000
  O2     O2        0.370682672336097    0.541929338990914    0.296353730181787  0.0000
  O2     O2        0.861633906721218    0.499806986003990    0.679778564824785  0.0000
  O2     O2        0.637201370298058    0.528671259973523    0.687255929556883  0.0000
  O2     O2        0.266190940644133    0.284266258688087    0.310300845822917  0.0000
  O2     O2        0.246665249124128    0.744069235555861    0.323419802042414  0.0000
  O2     O2        0.742813503652199    0.275435490342469    0.682833285753894  0.0000
  O2     O2        0.755645222690853    0.751496299509717    0.674737478909649  0.0000
  O3     O3        0.169482563396304    0.237313580917027    0.120005228875455  0.0000
  O2     O2        0.346438486601351    0.811649171404850    0.135840951344421  0.0000
  O2     O2        0.848699105683808    0.257474634976164    0.866111293187743  0.0000
  O2     O2        0.654980775978104    0.773543933281011    0.864325060975839  0.0000
  O2     O2        0.861941526277340    0.739303238359861    0.859029253682929  0.0000
  O2     O2        0.635991427587019    0.281786764740217    0.867416333132216  0.0000
  O2     O2        0.136223939951795    0.773254731828043    0.140530991455007  0.0000
  O3     O3        0.365481288411912    0.302923861190188    0.116892249420981  0.0000
  O2     O2        0.635121223980688    0.529633939818126    0.043588187517879  0.0000
  O2     O2        0.868903837464803    0.495207232697963    0.043344450359933  0.0000
  O3     O3        0.381190840585212    0.600559342000734    0.947518284017194  0.0000
  O3     O3        0.120460598570956    0.521049009163909    0.966749237702959  0.0000
  O2     O2        0.743369130403456    0.287175025417434    0.049385170415007  0.0000
  O2     O2        0.760956924175594    0.738273206469711    0.048463488031972  0.0000
  O1     O1        0.263132313623652    0.336246274784787    0.907346756078527  0.0000
  O2     O2        0.242331409584512    0.714282936105677    0.963975914670725  0.0000
