data_c00441.vasp
_audit_creation_method             Generated by GULP
_audit_author_name                 Salvador R. G. Balestra
_symmetry_space_group_name_H-M     'P 1             '
_symmetry_Int_Tables_number        1

loop_
_symmetry_equiv_pos_site_id
_symmetry_equiv_pos_as_xyz
_cell_length_a                       17.3096
_cell_length_b                        7.6633
_cell_length_c                       10.1402
_cell_angle_alpha                   89.2071
_cell_angle_beta                    89.9874
_cell_angle_gamma                   90.2959

loop_
_atom_site_label
_atom_site_type_symbol
_atom_site_fract_x
_atom_site_fract_y
_atom_site_fract_z
_atom_site_charge
  Ge     Ge        0.052090000000021    0.000000000000000    0.372269999999958  0.0000
  Ge     Ge        0.056354317339977    0.015398082390816    0.892414044966500  0.0000
  Ge     Ge        0.339403751695371    0.730292015741253    0.275395149747255  0.0000
  Ge     Ge        0.839337428583899    0.319672297070857    0.700178188629791  0.0000
  Si     Si        0.455630069889075    0.020346298537660    0.352575007175877  0.0000
  Si     Si        0.952462434580803    0.027022931504637    0.632436302867884  0.0000
  Si     Si        0.552426271251203    0.033138091547316    0.611422103556837  0.0000
  Si     Si        0.557746429962007    0.016106343490027    0.095212125495218  0.0000
  Si     Si        0.941407095869087    0.017829103732107    0.132528948647050  0.0000
  Si     Si        0.444921241283620    0.028596048384226    0.854957936731058  0.0000
  Si     Si        0.170882634536562    0.291710700269652    0.264290377620915  0.0000
  Si     Si        0.663225971396084    0.736449263316934    0.709837313975482  0.0000
  Si     Si        0.841828280198487    0.728147987282163    0.705436015291235  0.0000
  Si     Si        0.657986658448820    0.334593905933368    0.704600535646208  0.0000
  Si     Si        0.158563054940341    0.699690515983699    0.269121789552115  0.0000
  Si     Si        0.349103402367807    0.321265412566082    0.270092975476971  0.0000
  Si     Si        0.659285251046409    0.327648477548306    0.015220467396814  0.0000
  Si     Si        0.843900828371650    0.712598691023699    0.014859505740586  0.0000
  Si     Si        0.350945837474316    0.337188577942360    0.961122416455623  0.0000
  Si     Si        0.159891438534544    0.703333887652192    0.962251059002408  0.0000
  Si     Si        0.338437369654768    0.735514087888093    0.960286773072894  0.0000
  Si     Si        0.172675005165644    0.304169449834551    0.959109858711634  0.0000
  Si     Si        0.665849161271836    0.723930729335570    0.018516578740573  0.0000
  Si     Si        0.837415049930295    0.311947131292176    0.015617843834050  0.0000
  O3     O3        0.118131822105464    0.166986613561046    0.351562838413970  0.0000
  O3     O3        0.397594661494579    0.859289348761522    0.370629369180864  0.0000
  O3     O3        0.899921914286873    0.196331001280643    0.606179964326778  0.0000
  O2     O2        0.610046784849829    0.870589803645431    0.630044108167814  0.0000
  O2     O2        0.895292942742826    0.859683462739921    0.622081962646504  0.0000
  O2     O2        0.597333865240870    0.215582480583083    0.627358743812116  0.0000
  O3     O3        0.095102946125832    0.800111881083479    0.351449851436889  0.0000
  O2     O2        0.405082591521932    0.196133760464797    0.353289773690717  0.0000
  O3     O3        0.023517752077726    0.011919425378620    0.535139131310986  0.0000
  O2     O2        0.520047117575493    0.026777486660638    0.464531300035997  0.0000
  O3     O3        0.967703432569934    0.017909113756233    0.283071652760304  0.0000
  O2     O2        0.499138376430151    0.000590170320232    0.214360696384441  0.0000
  O3     O3        0.984324989644247    0.039382528253793    0.780669081213643  0.0000
  O2     O2        0.479822769051220    0.021539308972001    0.709377229683455  0.0000
  O2     O2        0.603598960956228    0.200005171492368    0.098581248588878  0.0000
  O2     O2        0.899695397948816    0.834442672396873    0.098956044815012  0.0000
  O2     O2        0.406565909273045    0.217851867312004    0.874605980430792  0.0000
  O3     O3        0.102161761474410    0.816453255995885    0.875723613201530  0.0000
  O2     O2        0.382118366156138    0.874058433262831    0.866488503601953  0.0000
  O3     O3        0.125249232503572    0.177821919101011    0.867733122693051  0.0000
  O2     O2        0.617745561876452    0.856149306006374    0.106847782260222  0.0000
  O2     O2        0.884973273710354    0.181180276533558    0.108367535917577  0.0000
  O2     O2        0.512838482677251    0.996956816001615    0.958707151343197  0.0000
  O3     O3        0.018749999196792    0.038039631501813    0.048098530078324  0.0000
  O2     O2        0.146713523768040    0.492001117071037    0.286033126997019  0.0000
  O3     O3        0.366531499220852    0.517799554175228    0.306318139162309  0.0000
  O3     O3        0.864465154224360    0.534126249343995    0.670349418712298  0.0000
  O2     O2        0.638940905420583    0.538284821712079    0.676519541751943  0.0000
  O2     O2        0.260575144162774    0.269923181423818    0.304502348493030  0.0000
  O3     O3        0.243508431104507    0.753932638823696    0.316842165622051  0.0000
  O3     O3        0.743611001037056    0.291699085185416    0.657744529987343  0.0000
  O2     O2        0.752431437862191    0.766226787459592    0.669406650495870  0.0000
  O2     O2        0.161091889997424    0.241166045839758    0.111064596438137  0.0000
  O3     O3        0.350931049545554    0.785462039000205    0.110964531899927  0.0000
  O3     O3        0.850116840998098    0.264235167287665    0.864844598171656  0.0000
  O2     O2        0.654180211458119    0.770997690266302    0.864924132228345  0.0000
  O2     O2        0.855206041514684    0.759113411410345    0.861196326312080  0.0000
  O2     O2        0.650210764348840    0.292307875542078    0.860242021954713  0.0000
  O2     O2        0.148944044547873    0.755205242653302    0.115286145727156  0.0000
  O2     O2        0.363718387349610    0.291614369465540    0.114584521413204  0.0000
  O2     O2        0.636829323966126    0.526564443084925    0.048045733930509  0.0000
  O2     O2        0.866249084637256    0.510588657822887    0.040308979166799  0.0000
  O2     O2        0.371044731136446    0.540675792424950    0.934801960439748  0.0000
  O2     O2        0.140745781866993    0.500295994102038    0.941156471866642  0.0000
  O2     O2        0.747656673316811    0.293208596748404    0.055458373748277  0.0000
  O2     O2        0.755540327260005    0.743853098527018    0.057088699893203  0.0000
  O2     O2        0.262806119494471    0.298840970163110    0.920927690825245  0.0000
  O2     O2        0.248347891495169    0.742637240959813    0.922203376091502  0.0000
