data_c00458.vasp
_audit_creation_method             Generated by GULP
_audit_author_name                 Salvador R. G. Balestra
_symmetry_space_group_name_H-M     'P 1             '
_symmetry_Int_Tables_number        1

loop_
_symmetry_equiv_pos_site_id
_symmetry_equiv_pos_as_xyz
_cell_length_a                       17.2049
_cell_length_b                        7.6200
_cell_length_c                       10.2275
_cell_angle_alpha                   89.2075
_cell_angle_beta                    90.8582
_cell_angle_gamma                   89.8007

loop_
_atom_site_label
_atom_site_type_symbol
_atom_site_fract_x
_atom_site_fract_y
_atom_site_fract_z
_atom_site_charge
  Ge     Ge        0.052090000000021    0.000000000000000    0.372269999999958  0.0000
  Ge     Ge        0.050126413258649    0.010997739761714    0.885962898717260  0.0000
  Ge     Ge        0.828748526543611    0.291532184864810    0.694863990454817  0.0000
  Ge     Ge        0.847893725043472    0.678616617010042    0.017384342731572  0.0000
  Si     Si        0.451644776727151    0.012304201943377    0.350196782551411  0.0000
  Si     Si        0.946551084339458    0.007956066673415    0.624687792724069  0.0000
  Si     Si        0.545174478020725    0.023731257766254    0.615777498702915  0.0000
  Si     Si        0.555223107238026    0.004468939850054    0.097665038106486  0.0000
  Si     Si        0.940695680655817    0.993498300489948    0.129092454781038  0.0000
  Si     Si        0.439550670054437    0.015720434865479    0.860099875120338  0.0000
  Si     Si        0.169893832996442    0.288804187966926    0.265670805929742  0.0000
  Si     Si        0.336512562564832    0.724442281361271    0.265826590319785  0.0000
  Si     Si        0.663304766262626    0.732153297683761    0.712626997036134  0.0000
  Si     Si        0.842408003258367    0.703818650473427    0.706864512923297  0.0000
  Si     Si        0.647312940661564    0.330596198154305    0.699868110095271  0.0000
  Si     Si        0.157282027035838    0.697333501515416    0.264933703374422  0.0000
  Si     Si        0.348661493140213    0.321847893362066    0.267559874738700  0.0000
  Si     Si        0.651232786251034    0.319386059309639    0.006249510411414  0.0000
  Si     Si        0.347689638300150    0.329627934771145    0.962206728968717  0.0000
  Si     Si        0.151728569591220    0.694726252071052    0.963323257633563  0.0000
  Si     Si        0.331477057871110    0.726804408588510    0.960103365707249  0.0000
  Si     Si        0.168470863202541    0.292837744789986    0.963643970556197  0.0000
  Si     Si        0.666469485352437    0.713227190475515    0.019899044474800  0.0000
  Si     Si        0.829986596553414    0.271862371324436    0.005323340025795  0.0000
  O3     O3        0.118195768490645    0.167910890500892    0.356183319393531  0.0000
  O2     O2        0.387957632170730    0.857160683262362    0.350570535232984  0.0000
  O3     O3        0.885084917279852    0.163977623843248    0.596159635669328  0.0000
  O2     O2        0.611833350937477    0.877316404156278    0.637623849300640  0.0000
  O2     O2        0.898624093803843    0.825416427686955    0.619851229648543  0.0000
  O2     O2        0.583367471773988    0.216809274644489    0.622333582851411  0.0000
  O3     O3        0.099098471369366    0.801795298126641    0.353703078817444  0.0000
  O2     O2        0.407612017190661    0.199767733222452    0.351284895726458  0.0000
  O3     O3        0.018655731669931    0.005036038843594    0.530001575454038  0.0000
  O2     O2        0.507244193877723    0.995133724688988    0.475046030167441  0.0000
  O3     O3        0.969512610488617    0.019816874600468    0.276392962851549  0.0000
  O2     O2        0.504920802074295    0.994021037601964    0.225398930308995  0.0000
  O3     O3        0.980277945801307    0.042397735197085    0.769694373525488  0.0000
  O2     O2        0.476635232160625    0.003809616508394    0.718943539354312  0.0000
  O2     O2        0.596105550319543    0.194000180428229    0.090093936223125  0.0000
  O3     O3        0.914630625500590    0.793019193032841    0.108429626462083  0.0000
  O2     O2        0.404285601854977    0.210208942834399    0.877728735237528  0.0000
  O3     O3        0.092419111920441    0.804713660852875    0.874649613000212  0.0000
  O2     O2        0.372298305574937    0.870163953013864    0.869049502620590  0.0000
  O3     O3        0.122912306711554    0.165954906029698    0.869665172986207  0.0000
  O2     O2        0.619342897410944    0.850550174143647    0.105473866206260  0.0000
  O2     O2        0.866805900375684    0.118635616426234    0.095926064930670  0.0000
  O2     O2        0.503676611273344    0.970504951175923    0.969565541286541  0.0000
  O3     O3        0.011219684207915    0.045556446037810    0.036960525774934  0.0000
  O2     O2        0.143805129456017    0.490108347787152    0.283782528276847  0.0000
  O2     O2        0.364178601508002    0.525602744556909    0.298537926598121  0.0000
  O3     O3        0.862523943460138    0.503541159111428    0.681868162727073  0.0000
  O2     O2        0.630156327724295    0.538617493676140    0.681354870894324  0.0000
  O2     O2        0.260865748464719    0.270363659349226    0.304406153839301  0.0000
  O2     O2        0.246238065697682    0.746576924616157    0.302267750396570  0.0000
  O3     O3        0.732076276234930    0.287176264464765    0.647561907955954  0.0000
  O2     O2        0.752350380006479    0.744060954656167    0.665904903566558  0.0000
  O2     O2        0.158485064824213    0.231557577279186    0.114939709758412  0.0000
  O2     O2        0.346302318720243    0.769064952402760    0.112380264129610  0.0000
  O3     O3        0.835161386747265    0.218668728069775    0.855160694061239  0.0000
  O2     O2        0.663763164636320    0.768834495011437    0.867042668974744  0.0000
  O3     O3        0.856646898702344    0.749937956301510    0.857742511316625  0.0000
  O2     O2        0.641661296665395    0.277986832267383    0.852940815180740  0.0000
  O2     O2        0.139285831118160    0.752479653203313    0.113869739797584  0.0000
  O2     O2        0.363099814334659    0.286538469866475    0.114866157927425  0.0000
  O2     O2        0.628342017194502    0.520061412029674    0.036082681768613  0.0000
  O3     O3        0.871165728596636    0.457812360919046    0.027469507648095  0.0000
  O2     O2        0.365397798691232    0.533425638857900    0.930312017811655  0.0000
  O2     O2        0.134481177485588    0.489532463629450    0.946027762376505  0.0000
  O2     O2        0.740536404829893    0.289916984593106    0.047954881273350  0.0000
  O3     O3        0.754463768269902    0.711038852491488    0.070387357585379  0.0000
  O2     O2        0.258762185794094    0.288304377707779    0.925753999797479  0.0000
  O2     O2        0.240371535882118    0.735390236341100    0.925120671748575  0.0000
