data_c00440.vasp
_audit_creation_method             Generated by GULP
_audit_author_name                 Salvador R. G. Balestra
_symmetry_space_group_name_H-M     'P 1             '
_symmetry_Int_Tables_number        1

loop_
_symmetry_equiv_pos_site_id
_symmetry_equiv_pos_as_xyz
_cell_length_a                       17.1957
_cell_length_b                        7.6046
_cell_length_c                       10.2540
_cell_angle_alpha                   90.9621
_cell_angle_beta                    90.4113
_cell_angle_gamma                   89.7555

loop_
_atom_site_label
_atom_site_type_symbol
_atom_site_fract_x
_atom_site_fract_y
_atom_site_fract_z
_atom_site_charge
  Ge     Ge        0.052090000000021    0.000000000000000    0.372269999999958  0.0000
  Ge     Ge        0.059561126274994    0.979881602569265    0.882208407887966  0.0000
  Ge     Ge        0.157284558672414    0.309464070235782    0.271721500738813  0.0000
  Ge     Ge        0.855058857489443    0.307965364219528    0.014223542564059  0.0000
  Si     Si        0.457250026215798    0.980065585584064    0.352715621588959  0.0000
  Si     Si        0.949266258676624    0.975195483610524    0.628684825276360  0.0000
  Si     Si        0.551543863979614    0.969726046378187    0.617294614733949  0.0000
  Si     Si        0.561752604155649    0.986895826493401    0.101429386114690  0.0000
  Si     Si        0.948756040056326    0.991670629094587    0.121786295410547  0.0000
  Si     Si        0.446910180044402    0.967117133472532    0.864570519969459  0.0000
  Si     Si        0.355365394872394    0.669867985020619    0.265645279478299  0.0000
  Si     Si        0.846600238927360    0.286035243502403    0.701713351066968  0.0000
  Si     Si        0.655335831621372    0.664825267633178    0.704721579316260  0.0000
  Si     Si        0.834115203184696    0.689719001763401    0.698143551663666  0.0000
  Si     Si        0.668524498872529    0.260896443426645    0.711708182530620  0.0000
  Si     Si        0.176394561028322    0.721966149964440    0.260428217056724  0.0000
  Si     Si        0.339936665635966    0.268131786706330    0.273334705210811  0.0000
  Si     Si        0.673112047851498    0.275232837602741    0.018027594092960  0.0000
  Si     Si        0.836938892822202    0.711299309426789    0.004381928851842  0.0000
  Si     Si        0.336560862962494    0.255915996095629    0.966658964649480  0.0000
  Si     Si        0.178172812441468    0.698967051194526    0.958588665487106  0.0000
  Si     Si        0.356644162574133    0.652080121045201    0.961632501800516  0.0000
  Si     Si        0.157223655983944    0.297546441229670    0.964481993536723  0.0000
  Si     Si        0.657430253674085    0.672168655609516    0.008290151556509  0.0000
  O1     O1        0.089212034807091    0.207440836298164    0.363393604712354  0.0000
  O2     O2        0.413836350960050    0.792506695327258    0.348420634636326  0.0000
  O2     O2        0.904431433710660    0.162938054312856    0.616247916789261  0.0000
  O2     O2        0.595319433192221    0.781392604950263    0.622124086927928  0.0000
  O2     O2        0.885334504625219    0.819335800446734    0.611705696321753  0.0000
  O2     O2        0.614468546454638    0.123990640888007    0.635034567372667  0.0000
  O3     O3        0.131921199082783    0.866546145160667    0.344166026828863  0.0000
  O2     O2        0.393457084783883    0.135918040702460    0.355261118237825  0.0000
  O3     O3        0.017291214846496    0.959978353314023    0.525787716593946  0.0000
  O2     O2        0.511037319880278    0.991213153954438    0.478992702210098  0.0000
  O3     O3        0.973541499424418    0.963854831146465    0.269830190463797  0.0000
  O2     O2        0.512321667751457    0.003976419411646    0.230254312950874  0.0000
  O3     O3        0.987651373029015    0.954278936425920    0.769930520058641  0.0000
  O2     O2        0.484263313294676    0.984955266784862    0.723942092764934  0.0000
  O2     O2        0.625767370150847    0.140191658296949    0.104518881754110  0.0000
  O2     O2        0.873716655593870    0.874506730250729    0.082532656718439  0.0000
  O2     O2        0.376743553445922    0.106578302160124    0.878389189604433  0.0000
  O3     O3        0.133177281551595    0.825326716469371    0.862860456900095  0.0000
  O2     O2        0.415073680523420    0.768564409644557    0.877915466837643  0.0000
  O3     O3        0.099786483931996    0.187665869793497    0.872233167935523  0.0000
  O2     O2        0.603004879765889    0.796189657573034    0.096372746908948  0.0000
  O3     O3        0.924033918390102    0.193648278060308    0.099564833678345  0.0000
  O2     O2        0.509329111796805    0.016006137278713    0.974666990506427  0.0000
  O3     O3        0.021068798389622    0.938556154366679    0.033171948846305  0.0000
  O3     O3        0.140385572724882    0.532166484521043    0.285126089757506  0.0000
  O2     O2        0.371658451252808    0.466410023133898    0.296989769129528  0.0000
  O2     O2        0.863204700282169    0.490179839166187    0.671469145287996  0.0000
  O2     O2        0.638327083382112    0.458138448458495    0.682628578746698  0.0000
  O3     O3        0.251634603524042    0.258467830744713    0.318903832101491  0.0000
  O2     O2        0.267090016299431    0.717986453317774    0.303098123983621  0.0000
  O2     O2        0.757396773435128    0.240137727588645    0.664075193626805  0.0000
  O2     O2        0.743184114578571    0.707315520606283    0.660424398543825  0.0000
  O3     O3        0.142747252063292    0.239096911279140    0.111982643277540  0.0000
  O2     O2        0.369099887758740    0.704716589165410    0.112961173491204  0.0000
  O3     O3        0.863557677273702    0.248851136932537    0.852067905615060  0.0000
  O2     O2        0.643575561760246    0.716276138892319    0.856550103048600  0.0000
  O2     O2        0.844527310763735    0.740851965569979    0.849873591044057  0.0000
  O2     O2        0.668083086489170    0.221707141130706    0.865230258692094  0.0000
  O2     O2        0.170848807494040    0.770301882068761    0.107477027398178  0.0000
  O2     O2        0.344201957009642    0.215518096308606    0.119894557560546  0.0000
  O2     O2        0.636728249102164    0.470588693706671    0.037358876132951  0.0000
  O3     O3        0.877059556596631    0.528198792563231    0.038605914244954  0.0000
  O2     O2        0.374975033570786    0.445659087599864    0.937676029917741  0.0000
  O2     O2        0.140696818499490    0.504656691781421    0.949646798525905  0.0000
  O3     O3        0.761499972189487    0.271249039776830    0.065146903456281  0.0000
  O2     O2        0.746991595786183    0.704984036371756    0.044932473936777  0.0000
  O2     O2        0.246422057836574    0.256665136793645    0.926281184917348  0.0000
  O2     O2        0.268377096749087    0.691150221520767    0.918236674519945  0.0000
