data_c00473.vasp
_audit_creation_method             Generated by GULP
_audit_author_name                 Salvador R. G. Balestra
_symmetry_space_group_name_H-M     'P 1             '
_symmetry_Int_Tables_number        1

loop_
_symmetry_equiv_pos_site_id
_symmetry_equiv_pos_as_xyz
_cell_length_a                       17.2986
_cell_length_b                        7.6651
_cell_length_c                       10.1145
_cell_angle_alpha                   90.7992
_cell_angle_beta                    89.7610
_cell_angle_gamma                   90.3065

loop_
_atom_site_label
_atom_site_type_symbol
_atom_site_fract_x
_atom_site_fract_y
_atom_site_fract_z
_atom_site_charge
  Ge     Ge        0.052090000000021    0.000000000000000    0.372269999999958  0.0000
  Ge     Ge        0.056003897659326    0.000009737827673    0.876464497664316  0.0000
  Ge     Ge        0.660295518977009    0.707890580214974    0.724045040886490  0.0000
  Ge     Ge        0.834102482956473    0.310838022126398    0.052553349507187  0.0000
  Si     Si        0.449327871226131    0.020045730876035    0.393066405575409  0.0000
  Si     Si        0.947859091060952    0.998162100460781    0.628467679092700  0.0000
  Si     Si        0.547715537844131    0.000615930039307    0.650588796656517  0.0000
  Si     Si        0.554623729398147    0.014420891726945    0.145280127627419  0.0000
  Si     Si        0.943719542684474    0.017946977490338    0.119421268946102  0.0000
  Si     Si        0.442465092839664    0.007310989309783    0.905669204710519  0.0000
  Si     Si        0.168126798219242    0.293122254724093    0.298238132407057  0.0000
  Si     Si        0.338694382184854    0.720551861821874    0.296554836311239  0.0000
  Si     Si        0.837001470073828    0.292585867108431    0.736799283015061  0.0000
  Si     Si        0.841738263163121    0.697367062019943    0.728777188807236  0.0000
  Si     Si        0.659525786884266    0.299572941287555    0.733509457719313  0.0000
  Si     Si        0.160901403341799    0.698059007757562    0.302241107733934  0.0000
  Si     Si        0.347136186153207    0.321313174375990    0.295369067277771  0.0000
  Si     Si        0.653824678436252    0.322507626542535    0.044521789457789  0.0000
  Si     Si        0.839335803480020    0.711079669904168    0.038947054335272  0.0000
  Si     Si        0.346536811240849    0.321222242507337    0.987098577982676  0.0000
  Si     Si        0.154904554018884    0.693461374043792    0.995739818621993  0.0000
  Si     Si        0.333245589738031    0.715895910846299    0.986126810189811  0.0000
  Si     Si        0.167264247822171    0.291190326357945    0.992959110674022  0.0000
  Si     Si        0.659964030810870    0.721370705390938    0.037799352744355  0.0000
  O3     O3        0.116241313359674    0.173605894762149    0.389821304441774  0.0000
  O2     O2        0.391781436671026    0.855597534959091    0.377018135179671  0.0000
  O2     O2        0.892225678997333    0.162791646351453    0.655383114285520  0.0000
  O3     O3        0.599845560703472    0.831130964914469    0.629344008662602  0.0000
  O2     O2        0.902944307966028    0.815190644425559    0.650329406550087  0.0000
  O2     O2        0.605481136698403    0.165908516426247    0.653557747305530  0.0000
  O3     O3        0.104622546348835    0.810631243046622    0.392898363607503  0.0000
  O2     O2        0.402948976602645    0.199976718153592    0.378939396428743  0.0000
  O3     O3        0.974803811827528    0.009099699703868    0.477685729086710  0.0000
  O2     O2        0.484030793866463    0.019614747521830    0.538604449930880  0.0000
  O3     O3        0.014752652841641    0.002612171458467    0.215181937733395  0.0000
  O2     O2        0.520846307021825    0.008983972332430    0.292276285550914  0.0000
  O3     O3        0.025344565838827    0.003117000290191    0.714713566584114  0.0000
  O2     O2        0.502410611183901    0.986071703290009    0.788207153240059  0.0000
  O2     O2        0.594097246677337    0.202568770100277    0.123984310249444  0.0000
  O2     O2        0.889076838057553    0.846529797785526    0.124746905351622  0.0000
  O2     O2        0.401203659295915    0.195893934087066    0.899369635658633  0.0000
  O3     O3        0.096280486610945    0.799077029271337    0.908355704499141  0.0000
  O2     O2        0.378538834344333    0.853749262895719    0.896531369788602  0.0000
  O3     O3        0.123726396150851    0.163926170159452    0.894473568647419  0.0000
  O2     O2        0.615731936215411    0.857718734659269    0.132262506474759  0.0000
  O3     O3        0.889843986098765    0.182906313742508    0.151428062452707  0.0000
  O2     O2        0.485773352072466    0.983702985842677    0.043263286541599  0.0000
  O3     O3        0.976344787504998    0.041212011723150    0.971676332938101  0.0000
  O2     O2        0.144298898530247    0.493850551395123    0.321856975152904  0.0000
  O2     O2        0.364648891449172    0.523779523465977    0.330123696365376  0.0000
  O2     O2        0.863277011357364    0.492744739341711    0.711491979338799  0.0000
  O3     O3        0.633609688852466    0.493135739610685    0.702369861571476  0.0000
  O2     O2        0.258798607823046    0.272669096469763    0.330359914290217  0.0000
  O2     O2        0.249544228540295    0.744780788473718    0.339101138060251  0.0000
  O2     O2        0.748374359134155    0.269037207575249    0.688369893659898  0.0000
  O3     O3        0.756051822543986    0.730931288878204    0.677491246164673  0.0000
  O2     O2        0.153266780685255    0.235235859329229    0.145195763280725  0.0000
  O2     O2        0.346833966737590    0.756043587140343    0.140869415667702  0.0000
  O3     O3        0.841530436454883    0.246138326818599    0.889308550067634  0.0000
  O3     O3        0.650591368744575    0.775056849280536    0.886952191182518  0.0000
  O2     O2        0.847233759779360    0.750194172310482    0.883208182204985  0.0000
  O2     O2        0.653635081885881    0.265987449305393    0.890469783592521  0.0000
  O2     O2        0.145058315690102    0.749222653407681    0.149635312193925  0.0000
  O2     O2        0.363489372122325    0.285952837422637    0.140727779403319  0.0000
  O2     O2        0.627632430533419    0.524675207494070    0.058457349764336  0.0000
  O3     O3        0.868983370930916    0.520557460474935    0.070267233431693  0.0000
  O2     O2        0.364462260035197    0.521890314954959    0.951323771140115  0.0000
  O2     O2        0.137009472217346    0.488241412463471    0.976219836143924  0.0000
  O3     O3        0.738762415590080    0.298752933745194    0.101791069422335  0.0000
  O2     O2        0.749584576851081    0.726278209176868    0.079411530421461  0.0000
  O2     O2        0.257636896461193    0.279064163705381    0.956865660227805  0.0000
  O2     O2        0.243087721388245    0.732269027866014    0.951409060083956  0.0000
