data_c00471.vasp
_audit_creation_method             Generated by GULP
_audit_author_name                 Salvador R. G. Balestra
_symmetry_space_group_name_H-M     'P 1             '
_symmetry_Int_Tables_number        1

loop_
_symmetry_equiv_pos_site_id
_symmetry_equiv_pos_as_xyz
_cell_length_a                       17.1667
_cell_length_b                        7.6011
_cell_length_c                       10.2911
_cell_angle_alpha                   90.1556
_cell_angle_beta                    90.3566
_cell_angle_gamma                   89.8119

loop_
_atom_site_label
_atom_site_type_symbol
_atom_site_fract_x
_atom_site_fract_y
_atom_site_fract_z
_atom_site_charge
  Ge     Ge        0.052090000000021    0.000000000000000    0.372269999999958  0.0000
  Ge     Ge        0.055169444765937    0.008378185372052    0.886674851439218  0.0000
  Ge     Ge        0.651195970068121    0.663489500044892    0.704703726379932  0.0000
  Ge     Ge        0.153155708278182    0.331880292352479    0.963714473129796  0.0000
  Si     Si        0.453999620629311    0.984311006566854    0.363309339187277  0.0000
  Si     Si        0.950156224943522    0.980046054068902    0.632664184564566  0.0000
  Si     Si        0.547654171731958    0.973946278716149    0.624750982135347  0.0000
  Si     Si        0.562195598563595    0.986848354519350    0.118367288802609  0.0000
  Si     Si        0.944015732728342    0.991647388266191    0.126185141913372  0.0000
  Si     Si        0.447953039692978    0.991204472965944    0.880974249338880  0.0000
  Si     Si        0.157923211858415    0.305050149522719    0.268984985341064  0.0000
  Si     Si        0.353066890106874    0.675443898724444    0.278290043036828  0.0000
  Si     Si        0.847062847473334    0.289632290742063    0.713137061877607  0.0000
  Si     Si        0.834196821145574    0.693333346464544    0.702150026603193  0.0000
  Si     Si        0.666722619411567    0.252843198903948    0.716964578267029  0.0000
  Si     Si        0.174491283420210    0.715924286831853    0.274221598508204  0.0000
  Si     Si        0.335880072105183    0.272976168330630    0.269718624907909  0.0000
  Si     Si        0.670747194121627    0.272033293205073    0.020203338053599  0.0000
  Si     Si        0.834316029231269    0.704079999746706    0.007829816006272  0.0000
  Si     Si        0.335076118008522    0.282541097449317    0.963854131363119  0.0000
  Si     Si        0.175782502538059    0.735619919788783    0.974606152693898  0.0000
  Si     Si        0.355351626103804    0.675599953739226    0.975890870815948  0.0000
  Si     Si        0.654557907752295    0.673117561869460    0.013733566748750  0.0000
  Si     Si        0.850785263109954    0.304937463424683    0.015438476876175  0.0000
  O3     O3        0.097202195593580    0.201176738436090    0.356264075802286  0.0000
  O2     O2        0.413049463033312    0.792767408934953    0.362036817293458  0.0000
  O2     O2        0.904167394894196    0.167052426920762    0.629613820813388  0.0000
  O3     O3        0.583252048412259    0.780036121821814    0.616451431697526  0.0000
  O2     O2        0.887846033435591    0.821233075751707    0.616724280582029  0.0000
  O2     O2        0.621788664231698    0.104195002818400    0.636043551844555  0.0000
  O3     O3        0.121071317964398    0.834914418123252    0.363297967263136  0.0000
  O2     O2        0.388288754640627    0.133215278633104    0.345975423738259  0.0000
  O3     O3        0.016476689371920    0.982772481113042    0.527596612178712  0.0000
  O2     O2        0.495901035561390    0.016707554131234    0.499699752310082  0.0000
  O3     O3        0.971149764860740    0.976728953704758    0.273831297007757  0.0000
  O2     O2        0.519947334477503    0.998566049874482    0.254973412125506  0.0000
  O3     O3        0.990483280499367    0.946311293046826    0.770935853238695  0.0000
  O2     O2        0.493244933156775    0.003948214951154    0.747963418473285  0.0000
  O2     O2        0.628978120140518    0.135921897413583    0.115313115134333  0.0000
  O2     O2        0.878292400999607    0.847374057484133    0.093632218383959  0.0000
  O2     O2        0.380521977892547    0.137992215153454    0.880002578093052  0.0000
  O3     O3        0.140399318743792    0.883357961914366    0.884677225109785  0.0000
  O2     O2        0.411508488809655    0.796635708045431    0.891064253183087  0.0000
  O1     O1        0.086254559420202    0.220364288344314    0.872122621182826  0.0000
  O2     O2        0.599696024348661    0.792928351757217    0.104187331534166  0.0000
  O2     O2        0.909643694803172    0.188276652407235    0.100313945122276  0.0000
  O2     O2        0.503273530596348    0.031631864416200    0.002503935227577  0.0000
  O3     O3        0.017970689667412    0.959634286731954    0.037774300998908  0.0000
  O2     O2        0.145361083824594    0.514789689749696    0.281019479279524  0.0000
  O2     O2        0.367929244593379    0.468439699905717    0.302423041983035  0.0000
  O2     O2        0.863233218029692    0.492723070493638    0.679640175451244  0.0000
  O3     O3        0.633633646570359    0.442893635487553    0.682088987473892  0.0000
  O2     O2        0.246290523998378    0.256229920889296    0.314411221882165  0.0000
  O2     O2        0.264967311295095    0.724524188850451    0.318523502789405  0.0000
  O2     O2        0.757882741005459    0.242731380874105    0.680068394273092  0.0000
  O3     O3        0.745326662523604    0.710393823518923    0.658342581699211  0.0000
  O3     O3        0.143834935803681    0.250913176677902    0.120392139981542  0.0000
  O2     O2        0.368130367348157    0.721101724616194    0.127597755324042  0.0000
  O2     O2        0.865002522778287    0.253799417577284    0.865131656534341  0.0000
  O3     O3        0.637885649547402    0.721121411742641    0.865458827349572  0.0000
  O2     O2        0.840738954299312    0.744195894853986    0.854792806101500  0.0000
  O2     O2        0.658193930587660    0.215844486856666    0.870686246432806  0.0000
  O2     O2        0.168024943491347    0.787034729787160    0.126992580070691  0.0000
  O2     O2        0.338089945464406    0.233622157319935    0.116339600882025  0.0000
  O2     O2        0.636360697913315    0.468055571930198    0.041136146460216  0.0000
  O2     O2        0.870090967898120    0.510635227392064    0.037929097417214  0.0000
  O2     O2        0.376219717062599    0.472925189342138    0.945584800038756  0.0000
  O3     O3        0.132074826304497    0.551511793232169    0.951386608995356  0.0000
  O2     O2        0.762133538006354    0.267464997940947    0.055079240785365  0.0000
  O2     O2        0.744449369269661    0.710713736491918    0.048605807975369  0.0000
  O3     O3        0.247495466323309    0.289882999337430    0.914039660500436  0.0000
  O2     O2        0.266013235273377    0.708808246625613    0.937741653816310  0.0000
