data_c00474.vasp
_audit_creation_method             Generated by GULP
_audit_author_name                 Salvador R. G. Balestra
_symmetry_space_group_name_H-M     'P 1             '
_symmetry_Int_Tables_number        1

loop_
_symmetry_equiv_pos_site_id
_symmetry_equiv_pos_as_xyz
_cell_length_a                       17.0963
_cell_length_b                        7.6283
_cell_length_c                       10.2863
_cell_angle_alpha                   89.6710
_cell_angle_beta                    89.9574
_cell_angle_gamma                   90.0633

loop_
_atom_site_label
_atom_site_type_symbol
_atom_site_fract_x
_atom_site_fract_y
_atom_site_fract_z
_atom_site_charge
  Ge     Ge        0.052090000000021    0.000000000000000    0.372269999999958  0.0000
  Ge     Ge        0.056784629575674    0.989821247943860    0.889610874232931  0.0000
  Ge     Ge        0.673229354143322    0.253492714674374    0.010765256924788  0.0000
  Ge     Ge        0.832299774072251    0.705875789232067    0.014040417709176  0.0000
  Si     Si        0.453486570397855    0.980702620489491    0.358390410876793  0.0000
  Si     Si        0.949581960695820    0.999202489234187    0.632457141762667  0.0000
  Si     Si        0.552479577309771    0.982284125875270    0.617865049557663  0.0000
  Si     Si        0.560517175814987    0.970901617354427    0.108363366862700  0.0000
  Si     Si        0.944199819710273    0.991632957514573    0.125239492140370  0.0000
  Si     Si        0.450270054502234    0.991997938651790    0.870586544769875  0.0000
  Si     Si        0.160108427727171    0.301656885921202    0.269566130885224  0.0000
  Si     Si        0.350474728067572    0.676677129095798    0.272649516651005  0.0000
  Si     Si        0.846410854386118    0.309755584598857    0.700273523387815  0.0000
  Si     Si        0.654642747686767    0.672977731958674    0.710211718589919  0.0000
  Si     Si        0.833867977573293    0.711279841998244    0.703780147290288  0.0000
  Si     Si        0.668550666086820    0.269208147676155    0.702017023632800  0.0000
  Si     Si        0.170826138240223    0.709739974252692    0.265034520009112  0.0000
  Si     Si        0.340607096201472    0.274693535550240    0.271873127592058  0.0000
  Si     Si        0.339641817095204    0.277788454364268    0.968375082694379  0.0000
  Si     Si        0.175090587096179    0.707740713572014    0.964859148609781  0.0000
  Si     Si        0.355397952223287    0.675197191193973    0.969032523752346  0.0000
  Si     Si        0.158367901425769    0.305423442236364    0.970282322985135  0.0000
  Si     Si        0.648776707332430    0.652347860646485    0.013877578760422  0.0000
  Si     Si        0.855355012547645    0.307671451473834    0.006778124726799  0.0000
  O3     O3        0.102120256325350    0.195844123395244    0.360470072221924  0.0000
  O2     O2        0.407093326880335    0.796688220666817    0.358698741954606  0.0000
  O2     O2        0.907361254792720    0.189764205298175    0.621370654720667  0.0000
  O2     O2        0.594772843527648    0.793902537222478    0.630205272894622  0.0000
  O2     O2        0.883912020666528    0.846565402971312    0.616135780953585  0.0000
  O2     O2        0.616085002302193    0.138584820263661    0.616335778535492  0.0000
  O3     O3        0.116400725732986    0.828717559052762    0.351930135055577  0.0000
  O2     O2        0.391856406913226    0.140826386177223    0.356802581089785  0.0000
  O3     O3        0.017455074144343    0.983746711178686    0.528716412898696  0.0000
  O2     O2        0.506297630390672    0.990696991143037    0.484381511262497  0.0000
  O3     O3        0.971380660540685    0.997114654419094    0.273154397256301  0.0000
  O2     O2        0.509876149508057    0.995291941175106    0.235575057779386  0.0000
  O3     O3        0.987139381702699    0.973542848841419    0.773511345106145  0.0000
  O2     O2        0.489628554995974    0.008622332817258    0.731228432415212  0.0000
  O3     O3        0.635572731305219    0.095016873874637    0.111559669978004  0.0000
  O3     O3        0.871158591152218    0.861533816897135    0.113737288353433  0.0000
  O2     O2        0.382469474682250    0.137491383519557    0.878428223637600  0.0000
  O3     O3        0.130351251470557    0.835697060837397    0.869685087659025  0.0000
  O2     O2        0.414428051184736    0.797154897801388    0.887822136569052  0.0000
  O3     O3        0.099848458405124    0.195237514582252    0.883631866765215  0.0000
  O2     O2        0.587741998696349    0.769223491045460    0.095007482558982  0.0000
  O2     O2        0.920418026197990    0.185139726926240    0.072657390227236  0.0000
  O2     O2        0.513187247967658    0.035648052226356    0.981235320074626  0.0000
  O3     O3        0.014911472874755    0.928019217492023    0.035677596452381  0.0000
  O2     O2        0.144879814927455    0.508156919977263    0.283933719907553  0.0000
  O2     O2        0.367371928919763    0.472961231717618    0.303673990895217  0.0000
  O2     O2        0.866305762630254    0.514772568389815    0.677978284121206  0.0000
  O2     O2        0.635857918065620    0.467708092288659    0.687864079899733  0.0000
  O2     O2        0.249375154646265    0.253103188785218    0.307378640353961  0.0000
  O2     O2        0.261445023439008    0.726501046772490    0.307300196984187  0.0000
  O2     O2        0.758474079297355    0.267125393381972    0.652273148495558  0.0000
  O2     O2        0.742554328927251    0.717746537952331    0.663369758291691  0.0000
  O2     O2        0.143642750801863    0.245317313076072    0.120162698241650  0.0000
  O2     O2        0.367492383790713    0.716307066622692    0.121109844746188  0.0000
  O2     O2        0.852589887047421    0.266697945211741    0.852812148179773  0.0000
  O2     O2        0.646533615031501    0.714479315933167    0.862754837116456  0.0000
  O3     O3        0.840791141372828    0.766541866088178    0.853160738273121  0.0000
  O3     O3        0.666527144530453    0.199922525027999    0.848807235753196  0.0000
  O2     O2        0.163315611267687    0.768685033815809    0.114450116661480  0.0000
  O2     O2        0.352790829742694    0.232255166253009    0.119921151797889  0.0000
  O3     O3        0.625660943633547    0.451747866449973    0.030669464148086  0.0000
  O3     O3        0.879377223006304    0.506477103987954    0.032170570630701  0.0000
  O2     O2        0.373898133204957    0.471910970471187    0.939038219392350  0.0000
  O2     O2        0.141786618803374    0.510830674671176    0.950236475780762  0.0000
  O3     O3        0.769146394752602    0.270911577825161    0.060548069172883  0.0000
  O3     O3        0.736767810111019    0.680574565035467    0.062066788175742  0.0000
  O2     O2        0.248341686062294    0.267164089207368    0.933509578292818  0.0000
  O2     O2        0.266620218324371    0.714943532246274    0.928531945742410  0.0000
