data_c00422.vasp
_audit_creation_method             Generated by GULP
_audit_author_name                 Salvador R. G. Balestra
_symmetry_space_group_name_H-M     'P 1             '
_symmetry_Int_Tables_number        1

loop_
_symmetry_equiv_pos_site_id
_symmetry_equiv_pos_as_xyz
_cell_length_a                       16.9323
_cell_length_b                        7.6023
_cell_length_c                       10.4638
_cell_angle_alpha                   90.3515
_cell_angle_beta                    90.6671
_cell_angle_gamma                   89.2107

loop_
_atom_site_label
_atom_site_type_symbol
_atom_site_fract_x
_atom_site_fract_y
_atom_site_fract_z
_atom_site_charge
  Ge     Ge        0.052090000000021    0.000000000000000    0.372269999999958  0.0000
  Ge     Ge        0.440700123193599    0.956978086635989    0.861321095259493  0.0000
  Ge     Ge        0.324501272036049    0.240264635690887    0.973731465326950  0.0000
  Ge     Ge        0.170915630740642    0.713329388728058    0.977771928537452  0.0000
  Si     Si        0.454846387399096    0.970000749785428    0.353205691525058  0.0000
  Si     Si        0.950171022562722    0.983897027618464    0.633263737013232  0.0000
  Si     Si        0.549177252429762    0.976461496857796    0.614022441704258  0.0000
  Si     Si        0.554048993903616    0.991445301276763    0.101427841116870  0.0000
  Si     Si        0.944577676986432    0.978001479364108    0.118114919135545  0.0000
  Si     Si        0.054538525379819    0.995803637980250    0.886063051986860  0.0000
  Si     Si        0.153504178894182    0.311011411076520    0.280081510050132  0.0000
  Si     Si        0.355456248134623    0.656937263369311    0.267703322876151  0.0000
  Si     Si        0.845175382016056    0.290710202774955    0.714113280427747  0.0000
  Si     Si        0.653453066857793    0.671348165537051    0.711963973693945  0.0000
  Si     Si        0.835888693506746    0.694734341626341    0.716144554011187  0.0000
  Si     Si        0.663098444710962    0.266685474813500    0.714194357438856  0.0000
  Si     Si        0.175742175411843    0.716278141158351    0.278724154625083  0.0000
  Si     Si        0.334206481705467    0.253334862783693    0.275811811716813  0.0000
  Si     Si        0.666183014736789    0.271612321456647    0.012068776740127  0.0000
  Si     Si        0.833698559284896    0.694723728723047    0.014044997719180  0.0000
  Si     Si        0.355640490352655    0.636666367315879    0.969107772743661  0.0000
  Si     Si        0.140005085555857    0.316776498638054    0.984013194041120  0.0000
  Si     Si        0.650611203957864    0.672038267411789    0.008754717334521  0.0000
  Si     Si        0.848884990618659    0.294427260050690    0.012079234374837  0.0000
  O3     O3        0.092502770832006    0.207237531979181    0.364961788398374  0.0000
  O2     O2        0.418182226254527    0.774629351239946    0.345802959975689  0.0000
  O2     O2        0.902043204013225    0.169290920745536    0.628570313589282  0.0000
  O2     O2        0.595206078179882    0.790171637319808    0.626998530887737  0.0000
  O2     O2        0.887434908739364    0.824959856825229    0.632531619700286  0.0000
  O2     O2        0.610531196686256    0.135570121535869    0.630645769802389  0.0000
  O3     O3        0.127885012540752    0.846428338919357    0.368922961548365  0.0000
  O2     O2        0.385318414902673    0.117552033329247    0.362454841524063  0.0000
  O3     O3        0.006947224319013    0.969950722965714    0.515909332483914  0.0000
  O2     O2        0.511265060190273    0.985425229611031    0.474786324064571  0.0000
  O3     O3        0.980283426542779    0.966784116383284    0.257740960712742  0.0000
  O2     O2        0.508253685658568    0.008054494481225    0.232132370613689  0.0000
  O2     O2        0.002202168772597    0.971733214801474    0.761222492767134  0.0000
  O3     O3        0.479691268175888    0.991520276230613    0.714435387108290  0.0000
  O2     O2        0.623324331895231    0.135548267995974    0.102593909261291  0.0000
  O2     O2        0.876411365091972    0.832827806338869    0.105621729281141  0.0000
  O1     O1        0.355196375122392    0.079234441266594    0.873592748362185  0.0000
  O3     O3        0.131398500379608    0.872172853161166    0.878798052844085  0.0000
  O3     O3        0.418157009097686    0.739878192325222    0.886035086429926  0.0000
  O2     O2        0.078431479206783    0.199714643355060    0.902687672524142  0.0000
  O2     O2        0.591404028186683    0.794628967573372    0.088932705619860  0.0000
  O2     O2        0.907608548906632    0.173217538931735    0.095185160043902  0.0000
  O3     O3        0.498358789581066    0.040726934786935    0.983494179466493  0.0000
  O2     O2        0.009806485851594    0.929763352029723    0.012552370746573  0.0000
  O2     O2        0.140527506125926    0.520293135677603    0.291871081750276  0.0000
  O2     O2        0.370925461846682    0.448892065154173    0.289343255548199  0.0000
  O2     O2        0.862432940639474    0.494337980603227    0.685325686383271  0.0000
  O2     O2        0.636250320122960    0.466919446710664    0.684430142655295  0.0000
  O2     O2        0.243254275682052    0.258948836799724    0.321804441762587  0.0000
  O2     O2        0.268411848420810    0.708935067852351    0.317091222646050  0.0000
  O2     O2        0.754933934060807    0.243814508630796    0.678976126355742  0.0000
  O2     O2        0.743541524116007    0.717799208976911    0.680123895533672  0.0000
  O2     O2        0.138091260131603    0.254382278642754    0.132471020809946  0.0000
  O2     O2        0.362352345703221    0.700045445855373    0.117836863485640  0.0000
  O2     O2        0.862300042495626    0.250526835995857    0.863041475435660  0.0000
  O2     O2        0.634788720087649    0.716345014035316    0.859740060977665  0.0000
  O2     O2        0.847876078674670    0.739457539705092    0.865753301527657  0.0000
  O2     O2        0.651842619062748    0.222519473031059    0.863257474931475  0.0000
  O3     O3        0.168137524685252    0.784474606408754    0.134543746508933  0.0000
  O3     O3        0.335510805318751    0.181657341619806    0.132271735588327  0.0000
  O2     O2        0.632719888436306    0.468751821200232    0.037660589577011  0.0000
  O2     O2        0.867003535003996    0.498342275657581    0.042512439851076  0.0000
  O3     O3        0.375988463969014    0.433300832270670    0.953744058617760  0.0000
  O3     O3        0.118033354705601    0.519733780683996    0.968152353109907  0.0000
  O2     O2        0.758545258267503    0.257825162411879    0.046786559531061  0.0000
  O2     O2        0.741135665275395    0.709900155996373    0.044658624015546  0.0000
  O3     O3        0.227677150556160    0.285644350023547    0.934297822503351  0.0000
  O3     O3        0.265991994057734    0.679625623435258    0.926205502509680  0.0000
