data_c00467.vasp
_audit_creation_method             Generated by GULP
_audit_author_name                 Salvador R. G. Balestra
_symmetry_space_group_name_H-M     'P 1             '
_symmetry_Int_Tables_number        1

loop_
_symmetry_equiv_pos_site_id
_symmetry_equiv_pos_as_xyz
_cell_length_a                       17.2803
_cell_length_b                        7.6413
_cell_length_c                       10.1295
_cell_angle_alpha                   90.1807
_cell_angle_beta                    89.6597
_cell_angle_gamma                   89.8551

loop_
_atom_site_label
_atom_site_type_symbol
_atom_site_fract_x
_atom_site_fract_y
_atom_site_fract_z
_atom_site_charge
  Ge     Ge        0.052090000000021    0.000000000000000    0.372269999999958  0.0000
  Ge     Ge        0.056743488258033    0.999791354022689    0.888631590577575  0.0000
  Ge     Ge        0.665775244259805    0.709764338357064    0.702276391945144  0.0000
  Ge     Ge        0.848632238356482    0.672730928734091    0.018501485795882  0.0000
  Si     Si        0.450440952127050    0.010163977455972    0.364518064336414  0.0000
  Si     Si        0.949793754449512    0.989810707999937    0.633770621557322  0.0000
  Si     Si        0.550172657547384    0.000120193145714    0.620212699911560  0.0000
  Si     Si        0.559048154116138    0.000176836614823    0.119686432737457  0.0000
  Si     Si        0.943439933168596    0.987953483679292    0.129754132433889  0.0000
  Si     Si        0.448298274634102    0.001270586462060    0.878257147054840  0.0000
  Si     Si        0.169784832641522    0.288533151021589    0.264435939131101  0.0000
  Si     Si        0.338622669036062    0.716143290393498    0.266702585244557  0.0000
  Si     Si        0.834969888949798    0.279429999770171    0.701377628397830  0.0000
  Si     Si        0.846432064798109    0.681315567891261    0.700011815206759  0.0000
  Si     Si        0.655720135010721    0.300864386451394    0.702784796418916  0.0000
  Si     Si        0.160692894495803    0.697220117539980    0.264609746639414  0.0000
  Si     Si        0.347673765626809    0.314326454834945    0.267518110186999  0.0000
  Si     Si        0.655302115584919    0.306963018910387    0.009443604519443  0.0000
  Si     Si        0.351086054406894    0.315739214097275    0.958523129305919  0.0000
  Si     Si        0.159907571617125    0.688279097744473    0.959578920311729  0.0000
  Si     Si        0.338305799269008    0.711102439573936    0.957090387025136  0.0000
  Si     Si        0.172633018114175    0.286998776978365    0.959443198287163  0.0000
  Si     Si        0.668020039102389    0.708028853159836    0.017742228881237  0.0000
  Si     Si        0.833897796363627    0.270440610450221    0.011180308741472  0.0000
  O3     O3        0.115470943631935    0.172076255653573    0.354394805906701  0.0000
  O2     O2        0.391462369471875    0.848982679334757    0.348141916923696  0.0000
  O2     O2        0.885328854049029    0.143502576479528    0.614898409950401  0.0000
  O3     O3        0.608646473643833    0.839466109793427    0.605264875497216  0.0000
  O2     O2        0.908064918633845    0.800560617135259    0.620170771604981  0.0000
  O2     O2        0.600954300031983    0.176977762882946    0.616326102582806  0.0000
  O3     O3        0.101164321631511    0.804736400555489    0.352055866706533  0.0000
  O2     O2        0.405093263767339    0.193229467039182    0.350387188787751  0.0000
  O3     O3        0.019978684552052    0.006221586705985    0.533567582348844  0.0000
  O2     O2        0.484704389576898    0.003751061599496    0.510256417134045  0.0000
  O3     O3        0.968896657138468    0.012568133761708    0.279853895577566  0.0000
  O2     O2        0.522577721066916    0.997152571867912    0.264880729636934  0.0000
  O3     O3        0.983213738701567    0.014510178339608    0.779695963658618  0.0000
  O2     O2        0.507736796678679    0.978635851682211    0.760193864438693  0.0000
  O2     O2        0.600732683896641    0.186898719990383    0.099445148550519  0.0000
  O3     O3        0.916119904902705    0.789930077358412    0.104156450399992  0.0000
  O2     O2        0.407788636748298    0.191962622911011    0.873542797078019  0.0000
  O3     O3        0.102381440060467    0.798611057714623    0.871726679454553  0.0000
  O2     O2        0.383690133989263    0.850092687165728    0.868234512289545  0.0000
  O3     O3        0.125757626831940    0.160758503389778    0.865922206574110  0.0000
  O2     O2        0.618825572313714    0.839543518564176    0.109337036212596  0.0000
  O2     O2        0.871447987436131    0.113331302027935    0.092789044469763  0.0000
  O2     O2        0.491546453996990    0.973171059281214    0.015186093612518  0.0000
  O3     O3        0.018260778138167    0.033376017095077    0.043627510425351  0.0000
  O2     O2        0.145800197256217    0.491028504419809    0.282316202497312  0.0000
  O2     O2        0.364018217390555    0.517609132246947    0.300535230416722  0.0000
  O2     O2        0.865785578891201    0.475802904936450    0.675788585696931  0.0000
  O3     O3        0.632993124779826    0.499092177341305    0.679909008858851  0.0000
  O2     O2        0.259559581172299    0.265840989338937    0.304998186947933  0.0000
  O2     O2        0.248755916286703    0.744080057220839    0.305744219644603  0.0000
  O2     O2        0.745108698374115    0.266888297760719    0.660417305901616  0.0000
  O3     O3        0.760858224699406    0.722074458416562    0.650190781169572  0.0000
  O2     O2        0.160743154860112    0.228802914901487    0.111971801444766  0.0000
  O2     O2        0.348939219640673    0.753254845506540    0.111541440566703  0.0000
  O2     O2        0.842540622966595    0.231925026646691    0.855392041269730  0.0000
  O3     O3        0.664068665439962    0.769354508862337    0.866673682006939  0.0000
  O3     O3        0.853908676702375    0.725579988598355    0.854062869143940  0.0000
  O2     O2        0.644644359693322    0.251557346849831    0.857140668698735  0.0000
  O2     O2        0.147144831192114    0.749746485986184    0.111676658506465  0.0000
  O2     O2        0.363190053795321    0.277556765474309    0.113102479336155  0.0000
  O2     O2        0.633250756089172    0.510771656972854    0.028393213849140  0.0000
  O3     O3        0.872461113159852    0.454820050274551    0.043508915723532  0.0000
  O2     O2        0.371061516662744    0.516912121063883    0.925565759819531  0.0000
  O2     O2        0.141076329172744    0.484068865588107    0.942163920961725  0.0000
  O2     O2        0.743801617023102    0.278369958976558    0.051833805387611  0.0000
  O3     O3        0.754891405025474    0.709396016077476    0.070274799585406  0.0000
  O2     O2        0.262848226411005    0.276332502111716    0.920320875938712  0.0000
  O2     O2        0.248610606030043    0.724014796240982    0.918315095172633  0.0000
