data_c00420.vasp
_audit_creation_method             Generated by GULP
_audit_author_name                 Salvador R. G. Balestra
_symmetry_space_group_name_H-M     'P 1             '
_symmetry_Int_Tables_number        1

loop_
_symmetry_equiv_pos_site_id
_symmetry_equiv_pos_as_xyz
_cell_length_a                       17.2389
_cell_length_b                        7.6399
_cell_length_c                       10.1041
_cell_angle_alpha                   89.6887
_cell_angle_beta                    91.0041
_cell_angle_gamma                   89.5008

loop_
_atom_site_label
_atom_site_type_symbol
_atom_site_fract_x
_atom_site_fract_y
_atom_site_fract_z
_atom_site_charge
  Ge     Ge        0.052090000000021    0.000000000000000    0.372269999999958  0.0000
  Ge     Ge        0.433693296836954    0.992462276612494    0.887330473738941  0.0000
  Ge     Ge        0.826487442927617    0.699690611911274    0.034257391013027  0.0000
  Ge     Ge        0.137205901112683    0.316036947754860    0.983066751491607  0.0000
  Si     Si        0.449853222391967    0.978734416144998    0.373121300425301  0.0000
  Si     Si        0.940348451556833    0.988392440175594    0.620887011979183  0.0000
  Si     Si        0.546565029591568    0.985544083849403    0.636176759989009  0.0000
  Si     Si        0.549822212757124    0.989117002199067    0.127029959255445  0.0000
  Si     Si        0.938687323111401    0.985591455370445    0.118039297325623  0.0000
  Si     Si        0.041709641144290    0.002519819351168    0.874882612109924  0.0000
  Si     Si        0.156824569939089    0.304202256282282    0.296291405157891  0.0000
  Si     Si        0.346746458868660    0.676590210096287    0.275674067456764  0.0000
  Si     Si        0.837467874646412    0.292622776098514    0.722009361736114  0.0000
  Si     Si        0.652264664726270    0.676447376417680    0.709676633408231  0.0000
  Si     Si        0.829176894740283    0.697760513402983    0.718352846546346  0.0000
  Si     Si        0.658265938149621    0.276614940599830    0.712994954106714  0.0000
  Si     Si        0.168512314613712    0.709125075006614    0.295167425595162  0.0000
  Si     Si        0.333782475172802    0.273272239469393    0.270851432451263  0.0000
  Si     Si        0.658090675224087    0.277915402217240    0.022225377933668  0.0000
  Si     Si        0.318014191372856    0.281826962967960    0.961278211404746  0.0000
  Si     Si        0.155445952403113    0.721740865665568    0.988008831287594  0.0000
  Si     Si        0.334916766398780    0.678039426913496    0.969378606262247  0.0000
  Si     Si        0.646031863854109    0.675209271971655    0.022152675831138  0.0000
  Si     Si        0.838741352611403    0.295635198759104    0.029437823395889  0.0000
  O3     O3        0.102652841326136    0.192964832102564    0.390989683912862  0.0000
  O2     O2        0.407037676598473    0.792458148787859    0.359289068605447  0.0000
  O2     O2        0.893802940300020    0.171269054053416    0.637283303284553  0.0000
  O2     O2        0.593129392195594    0.801356953828654    0.628270887666572  0.0000
  O2     O2        0.883079873073704    0.823953200913104    0.633220338931198  0.0000
  O2     O2        0.607637004964230    0.144831898446721    0.624592314350360  0.0000
  O3     O3        0.119776515547369    0.831774514616974    0.389503417124668  0.0000
  O2     O2        0.389759248297295    0.137586273569893    0.347074866639317  0.0000
  O3     O3        0.975941541244312    0.984376572568473    0.477604801079507  0.0000
  O2     O2        0.481379863377448    0.995519116627246    0.522162593080429  0.0000
  O3     O3        0.009247137743805    0.986433936900803    0.217958321565607  0.0000
  O2     O2        0.524012980211026    0.987418714337149    0.279105804157987  0.0000
  O2     O2        0.012439361956321    0.975083380981342    0.724706105013985  0.0000
  O3     O3        0.504724283736555    0.004498609247052    0.773992413830098  0.0000
  O2     O2        0.615811930237201    0.135316584768266    0.110816685165258  0.0000
  O3     O3        0.877969422778258    0.831735957099046    0.139659108104352  0.0000
  O3     O3        0.362839606065140    0.151554977322323    0.867561045673048  0.0000
  O2     O2        0.115699698051544    0.875889139975849    0.902134739560333  0.0000
  O3     O3        0.388220203705702    0.792242955243076    0.877436479542483  0.0000
  O3     O3        0.067965708588191    0.201051500592610    0.896239564321324  0.0000
  O2     O2        0.581561601722502    0.796808614807867    0.088329922556577  0.0000
  O2     O2        0.891189282996065    0.169155880339109    0.121478282470937  0.0000
  O3     O3        0.475670768652984    0.036468685414514    0.039089452543336  0.0000
  O2     O2        0.972551037840024    0.950637197767425    0.971608042827859  0.0000
  O2     O2        0.140798200801322    0.510110469702835    0.314885124354751  0.0000
  O2     O2        0.365245705113590    0.470144275057065    0.294309189511761  0.0000
  O2     O2        0.857419769182246    0.496624257410877    0.699670871074470  0.0000
  O2     O2        0.630801741902609    0.475028138857628    0.680459857009940  0.0000
  O2     O2        0.247273165054363    0.259322685151988    0.328287048812471  0.0000
  O2     O2        0.260426405267334    0.719956735022869    0.326052552448331  0.0000
  O2     O2        0.748756653000996    0.254770390163242    0.678670872123389  0.0000
  O2     O2        0.740077468527208    0.714968490991037    0.666073242723018  0.0000
  O3     O3        0.135238765718027    0.251537822887443    0.146486368457116  0.0000
  O2     O2        0.354409177099985    0.729484095049860    0.121821200209808  0.0000
  O2     O2        0.850771885419416    0.244950449546858    0.876021416872857  0.0000
  O2     O2        0.645635162727066    0.714317551499708    0.865377495546744  0.0000
  O3     O3        0.833382692768121    0.755214520567246    0.869636451253869  0.0000
  O2     O2        0.646715229025284    0.231822579690984    0.867697956979724  0.0000
  O2     O2        0.152267989894217    0.769926805963156    0.143467886806214  0.0000
  O2     O2        0.328301993224607    0.226598332633706    0.115960643887962  0.0000
  O2     O2        0.624027333799687    0.472165902699430    0.048753946233429  0.0000
  O3     O3        0.863576264097289    0.491141289833534    0.057098686254470  0.0000
  O2     O2        0.353343093731920    0.475332002842797    0.943130326190100  0.0000
  O3     O3        0.114958082920599    0.536773095999251    0.965604282777887  0.0000
  O2     O2        0.748393002000591    0.272860506479676    0.063173210364457  0.0000
  O3     O3        0.730650762203901    0.712747332928121    0.080156471634366  0.0000
  O3     O3        0.228170491517767    0.279681226012980    0.921228368986514  0.0000
  O2     O2        0.243982004881496    0.712414608625736    0.940988981678621  0.0000
