data_c00480.vasp
_audit_creation_method             Generated by GULP
_audit_author_name                 Salvador R. G. Balestra
_symmetry_space_group_name_H-M     'P 1             '
_symmetry_Int_Tables_number        1

loop_
_symmetry_equiv_pos_site_id
_symmetry_equiv_pos_as_xyz
_cell_length_a                       17.2084
_cell_length_b                        7.6439
_cell_length_c                       10.1702
_cell_angle_alpha                   90.6641
_cell_angle_beta                    90.3286
_cell_angle_gamma                   90.3277

loop_
_atom_site_label
_atom_site_type_symbol
_atom_site_fract_x
_atom_site_fract_y
_atom_site_fract_z
_atom_site_charge
  Ge     Ge        0.052090000000021    0.000000000000000    0.372269999999958  0.0000
  Ge     Ge        0.058862072010802    0.997471945262982    0.886288311408861  0.0000
  Ge     Ge        0.669073269092341    0.304917874647921    0.026948863489988  0.0000
  Ge     Ge        0.854655526201797    0.335568423611485    0.020659779053849  0.0000
  Si     Si        0.451529914672199    0.991753941604290    0.356706069960036  0.0000
  Si     Si        0.948779316080796    0.004675263676373    0.631660105179043  0.0000
  Si     Si        0.552676512050227    0.993167296599718    0.614737172174903  0.0000
  Si     Si        0.560389414400077    0.010582171727256    0.109000951501888  0.0000
  Si     Si        0.946508632172537    0.016785668080358    0.125233328867400  0.0000
  Si     Si        0.450246904152996    0.998625318003447    0.866626120930628  0.0000
  Si     Si        0.160629622947955    0.301576098083622    0.264201212077086  0.0000
  Si     Si        0.347905325302093    0.685658702417345    0.279048837042759  0.0000
  Si     Si        0.844436863492678    0.312224699467782    0.703866136377013  0.0000
  Si     Si        0.656940559193339    0.692912074640053    0.704001856385776  0.0000
  Si     Si        0.835727579001219    0.713216894671086    0.696512183782149  0.0000
  Si     Si        0.666511293990824    0.287622642541145    0.712970167468085  0.0000
  Si     Si        0.169380024019596    0.709540980619593    0.267907692496376  0.0000
  Si     Si        0.340232239794878    0.284630109924578    0.272466998647838  0.0000
  Si     Si        0.838460798814442    0.732584053725237    0.004246338820186  0.0000
  Si     Si        0.341825821473637    0.289162509700171    0.965001760828196  0.0000
  Si     Si        0.174677355941903    0.712350797891721    0.963997141992532  0.0000
  Si     Si        0.353799505278301    0.686413534966811    0.971288500918466  0.0000
  Si     Si        0.161879912101399    0.310299289331786    0.961306197509995  0.0000
  Si     Si        0.657304447951516    0.702292487041583    0.007949722240089  0.0000
  O3     O3        0.102361964113683    0.193598074133669    0.351707668061922  0.0000
  O2     O2        0.403583679349814    0.810008214776621    0.367049292376908  0.0000
  O2     O2        0.901874131090463    0.187487013639541    0.620627424750706  0.0000
  O2     O2        0.599007589541747    0.809600404247023    0.617621168755643  0.0000
  O2     O2        0.887505884539494    0.843512298422567    0.609429017943484  0.0000
  O2     O2        0.611836053239514    0.155634209852713    0.630462546989220  0.0000
  O3     O3        0.114624446771294    0.825994085052017    0.356963200779762  0.0000
  O2     O2        0.391413225149104    0.153234179931968    0.358319543859657  0.0000
  O3     O3        0.018750208026670    0.998407408961901    0.531349243988092  0.0000
  O2     O2        0.511878498635449    0.010379324480944    0.474643198549846  0.0000
  O3     O3        0.969975971198744    0.986694101633437    0.275196228256698  0.0000
  O2     O2        0.498972213725322    0.991255658526486    0.222835029497298  0.0000
  O3     O3        0.985146243910163    0.982845492344016    0.775718241297926  0.0000
  O2     O2        0.484927613519395    0.997671843260108    0.721877058773029  0.0000
  O3     O3        0.616874275808108    0.173555163435567    0.130629549953283  0.0000
  O2     O2        0.871286197924967    0.899360884655299    0.083920141651586  0.0000
  O2     O2        0.386106525242535    0.150592792889788    0.874317119922006  0.0000
  O3     O3        0.128337130948923    0.836076008997200    0.868447214130349  0.0000
  O2     O2        0.412523877057798    0.808855317453224    0.892597364633905  0.0000
  O3     O3        0.105257233463177    0.198122417372721    0.870201733484088  0.0000
  O2     O2        0.612027880252991    0.836111920778617    0.100732966331715  0.0000
  O3     O3        0.924193512461437    0.217643071107944    0.101988465775883  0.0000
  O2     O2        0.517536968683997    0.043775442280227    0.970500795965810  0.0000
  O3     O3        0.019983375327826    0.963001049166443    0.039324218305082  0.0000
  O2     O2        0.144820589579719    0.507308520747585    0.283093770043713  0.0000
  O2     O2        0.365335690131451    0.483152033759489    0.309771051594583  0.0000
  O2     O2        0.864598438598139    0.514732398010017    0.672553771824924  0.0000
  O2     O2        0.637219564528912    0.486729151205655    0.690722621779901  0.0000
  O2     O2        0.249457549440373    0.256605624741578    0.304140462069303  0.0000
  O2     O2        0.259038243684155    0.731437589382735    0.313082410621347  0.0000
  O2     O2        0.755246392998410    0.271602600850778    0.662424851142942  0.0000
  O2     O2        0.745072968570660    0.728514707379684    0.656840394070831  0.0000
  O2     O2        0.146221931818293    0.248894190153502    0.111299714982257  0.0000
  O2     O2        0.364169744032794    0.723335417821622    0.126202448032985  0.0000
  O3     O3        0.856612674811017    0.276145147187822    0.856569123861849  0.0000
  O2     O2        0.646140543118574    0.753903808925128    0.855237820773751  0.0000
  O2     O2        0.845527928731526    0.767546531008430    0.848973849881124  0.0000
  O3     O3        0.665645571735533    0.236642278500536    0.864370583440158  0.0000
  O2     O2        0.161698937750442    0.769423912640638    0.116290395187007  0.0000
  O2     O2        0.354672109565999    0.245764285971484    0.118312088785833  0.0000
  O3     O3        0.627361743430705    0.509777172558123    0.034965013650070  0.0000
  O3     O3        0.881510953789170    0.554423088778481    0.038439523155483  0.0000
  O2     O2        0.373670132392971    0.484629498352498    0.937275434252147  0.0000
  O2     O2        0.143852988922899    0.514313196990983    0.943741265146416  0.0000
  O1     O1        0.763400030579195    0.301927357285880    0.079601136310193  0.0000
  O2     O2        0.748758099332015    0.705296262036476    0.042947077669522  0.0000
  O2     O2        0.251527761555964    0.274470725055563    0.926811592354435  0.0000
  O2     O2        0.265654219999395    0.726034148703691    0.928965727799858  0.0000
