data_c00405.vasp
_audit_creation_method             Generated by GULP
_audit_author_name                 Salvador R. G. Balestra
_symmetry_space_group_name_H-M     'P 1             '
_symmetry_Int_Tables_number        1

loop_
_symmetry_equiv_pos_site_id
_symmetry_equiv_pos_as_xyz
_cell_length_a                       17.2709
_cell_length_b                        7.6378
_cell_length_c                       10.1089
_cell_angle_alpha                   90.8117
_cell_angle_beta                    90.5356
_cell_angle_gamma                   90.7445

loop_
_atom_site_label
_atom_site_type_symbol
_atom_site_fract_x
_atom_site_fract_y
_atom_site_fract_z
_atom_site_charge
  Ge     Ge        0.052090000000021    0.000000000000000    0.372269999999958  0.0000
  Ge     Ge        0.441694955996983    0.002376456557082    0.897749628010587  0.0000
  Ge     Ge        0.661614833336930    0.713863763460652    0.719239277601595  0.0000
  Ge     Ge        0.143747022709366    0.672393753465283    0.981909747883844  0.0000
  Si     Si        0.449237707231814    0.023686214270744    0.383565884550729  0.0000
  Si     Si        0.947229981175186    0.000889369462695    0.629039032574584  0.0000
  Si     Si        0.548076070591550    0.999836241674222    0.639284904072426  0.0000
  Si     Si        0.555573078407861    0.005438066454835    0.143264748607692  0.0000
  Si     Si        0.942180003416381    0.011604630862338    0.113881366470169  0.0000
  Si     Si        0.051029364580925    0.984385556028146    0.874381627925356  0.0000
  Si     Si        0.170601357192180    0.288244741468612    0.298072377117232  0.0000
  Si     Si        0.334373758217881    0.727583715830217    0.278154716126359  0.0000
  Si     Si        0.834832719953616    0.292760945423711    0.729574511505079  0.0000
  Si     Si        0.843309156866931    0.695382645706262    0.726826193228816  0.0000
  Si     Si        0.656138352680838    0.303286876057895    0.721475225964254  0.0000
  Si     Si        0.156988270507781    0.693383744175751    0.294902895504456  0.0000
  Si     Si        0.348500802399970    0.324851178107949    0.284359209196131  0.0000
  Si     Si        0.653625540042261    0.313814908101039    0.031106531817539  0.0000
  Si     Si        0.840563267471954    0.697950987988901    0.038358849742018  0.0000
  Si     Si        0.342143270486921    0.317009593304935    0.977495889003647  0.0000
  Si     Si        0.324660801338573    0.712489607720392    0.968484525922503  0.0000
  Si     Si        0.163030192157694    0.267679619438620    0.990957430144261  0.0000
  Si     Si        0.661966490419173    0.716846056500501    0.034694449111492  0.0000
  Si     Si        0.831771223200093    0.300865098834507    0.039852051639503  0.0000
  O3     O3        0.121051399800986    0.165974865878893    0.391403131913533  0.0000
  O2     O2        0.388316067696247    0.866278014563311    0.356181572808324  0.0000
  O2     O2        0.887536603384020    0.158549148257157    0.650180958710965  0.0000
  O3     O3        0.604480039844707    0.837491990131174    0.618256038832796  0.0000
  O2     O2        0.905265009102257    0.813977118450032    0.651105902825723  0.0000
  O2     O2        0.600993751651977    0.175523618714958    0.635223461223656  0.0000
  O3     O3        0.100637385243891    0.804705642293001    0.386312220913741  0.0000
  O2     O2        0.408235822486562    0.211140411032086    0.368821401598554  0.0000
  O3     O3        0.977535414495451    0.011028810868919    0.482185040813846  0.0000
  O2     O2        0.478539530578612    0.009341742809800    0.533918954545884  0.0000
  O3     O3        0.008006181347127    0.027740470711375    0.221192668680692  0.0000
  O2     O2        0.525030816792168    0.010631109918305    0.293017090978990  0.0000
  O2     O2        0.022291940437289    0.019073476357522    0.725284085004342  0.0000
  O3     O3        0.511204855867753    0.977510334702582    0.782317071463644  0.0000
  O2     O2        0.595757295466243    0.192499933351904    0.112615145613489  0.0000
  O2     O2        0.896836034578814    0.824972467383660    0.124090277005939  0.0000
  O3     O3        0.397425445422813    0.203483615198531    0.887537673072547  0.0000
  O3     O3        0.077249068728890    0.785637531458434    0.890094042503542  0.0000
  O3     O3        0.370466744848318    0.843630948608676    0.877506795655711  0.0000
  O2     O2        0.124713287363696    0.110212696249112    0.906017038007062  0.0000
  O2     O2        0.615902977145283    0.847112838252917    0.130196760871047  0.0000
  O2     O2        0.880331991909650    0.167964188046757    0.128013645667963  0.0000
  O3     O3        0.482618609685527    0.969301683047290    0.050491222376768  0.0000
  O2     O2        0.980624936641480    0.029643963041813    0.970465188699376  0.0000
  O2     O2        0.141928176336704    0.487159294018504    0.313980521436938  0.0000
  O2     O2        0.366079147720077    0.532032065115906    0.304008982584322  0.0000
  O2     O2        0.861175898575308    0.491096257496807    0.697341152646130  0.0000
  O3     O3        0.634517909071839    0.499221514798711    0.690657359272802  0.0000
  O2     O2        0.261840992592354    0.280772112608795    0.332987021558626  0.0000
  O2     O2        0.246614965473108    0.741256995177982    0.330329355503993  0.0000
  O2     O2        0.745480822648369    0.265265201676479    0.685385308517887  0.0000
  O3     O3        0.757808480207354    0.740558961173360    0.679086685235698  0.0000
  O2     O2        0.158057299191557    0.222688939174613    0.146360083142049  0.0000
  O2     O2        0.332539493245248    0.770817389569473    0.123040495391167  0.0000
  O2     O2        0.842179694787967    0.257153881439269    0.885242966731744  0.0000
  O3     O3        0.649611020237233    0.770540541704023    0.883914926736539  0.0000
  O2     O2        0.851031668147848    0.734436901440557    0.883435648916941  0.0000
  O2     O2        0.643170501953167    0.265047096967360    0.876777745358668  0.0000
  O3     O3        0.137556496447917    0.742340692659847    0.144258134954832  0.0000
  O2     O2        0.358456959997137    0.269998778025291    0.131028649458244  0.0000
  O2     O2        0.632192266002360    0.516873663840231    0.054617148008177  0.0000
  O2     O2        0.862034883688337    0.498242198542357    0.071639728574558  0.0000
  O2     O2        0.360944843194329    0.519665017098286    0.951599253131984  0.0000
  O3     O3        0.122259766425492    0.451032354239793    0.965879902816392  0.0000
  O2     O2        0.741695544260893    0.281167788947322    0.077414946679801  0.0000
  O2     O2        0.752015353402002    0.732860044872252    0.075879323757305  0.0000
  O2     O2        0.251965115846212    0.279148239766668    0.945631237108630  0.0000
  O3     O3        0.235800590482617    0.709460493789677    0.924959841555861  0.0000
