data_c00412.vasp
_audit_creation_method             Generated by GULP
_audit_author_name                 Salvador R. G. Balestra
_symmetry_space_group_name_H-M     'P 1             '
_symmetry_Int_Tables_number        1

loop_
_symmetry_equiv_pos_site_id
_symmetry_equiv_pos_as_xyz
_cell_length_a                       17.0795
_cell_length_b                        7.5780
_cell_length_c                       10.3648
_cell_angle_alpha                   90.8856
_cell_angle_beta                    90.7777
_cell_angle_gamma                   90.3204

loop_
_atom_site_label
_atom_site_type_symbol
_atom_site_fract_x
_atom_site_fract_y
_atom_site_fract_z
_atom_site_charge
  Ge     Ge        0.052090000000021    0.000000000000000    0.372269999999958  0.0000
  Ge     Ge        0.440514805113725    0.010873869501504    0.869057624168214  0.0000
  Ge     Ge        0.648436723338520    0.346652831189970    0.028998291960363  0.0000
  Ge     Ge        0.141729606471264    0.672843156129270    0.985319063695388  0.0000
  Si     Si        0.453600872718982    0.016609711040168    0.360201890554007  0.0000
  Si     Si        0.948468452192944    0.005188591207673    0.629876496133053  0.0000
  Si     Si        0.549582519367388    0.012725114182775    0.621510977041138  0.0000
  Si     Si        0.554626289818344    0.025711708700781    0.112278645675256  0.0000
  Si     Si        0.945858133743629    0.024410501954910    0.112102726337919  0.0000
  Si     Si        0.053382123891342    0.991207540594590    0.875621625740850  0.0000
  Si     Si        0.173658725065213    0.279031427540897    0.286182843428325  0.0000
  Si     Si        0.333832891312914    0.730902054933810    0.277093250409950  0.0000
  Si     Si        0.831531219293646    0.294864260661607    0.728853190555997  0.0000
  Si     Si        0.666118532782956    0.729885116602644    0.719126535100580  0.0000
  Si     Si        0.846167645188112    0.699979140309053    0.722176987980106  0.0000
  Si     Si        0.652468621039502    0.321708246299229    0.722277671721681  0.0000
  Si     Si        0.153725293387438    0.686799793997343    0.289392084773391  0.0000
  Si     Si        0.353605029496983    0.325872163349230    0.275168984183590  0.0000
  Si     Si        0.849487804047600    0.706746998490422    0.022165833773072  0.0000
  Si     Si        0.348076156821240    0.329648129846510    0.977038356603301  0.0000
  Si     Si        0.325221871846405    0.727933466283412    0.976307072294419  0.0000
  Si     Si        0.167050571070853    0.267451095051588    0.986826457917354  0.0000
  Si     Si        0.668393396435403    0.750952594282324    0.020173532724749  0.0000
  Si     Si        0.831494401078023    0.310125812547575    0.032087201242790  0.0000
  O3     O3        0.127761705221163    0.153804304281993    0.380215138096626  0.0000
  O2     O2        0.385069742182182    0.868811912091793    0.362206730865773  0.0000
  O2     O2        0.884800065790418    0.157877892022673    0.652397704918080  0.0000
  O2     O2        0.613976399007616    0.858008633701286    0.632457514567310  0.0000
  O2     O2        0.905617582758847    0.814611965119400    0.638617916289979  0.0000
  O2     O2        0.591944359849935    0.202782424961514    0.638250643864044  0.0000
  O3     O3        0.095727870783809    0.795135786862413    0.380266433428774  0.0000
  O2     O2        0.414819211169546    0.211158268703947    0.357847044508392  0.0000
  O3     O3        0.984393334417486    0.025562355307654    0.491140385002667  0.0000
  O2     O2        0.510413077322398    0.001384884033295    0.481459906690191  0.0000
  O3     O3        0.002075980451072    0.044101028728910    0.232096080462856  0.0000
  O2     O2        0.506525758521722    0.978601381210281    0.237175928805691  0.0000
  O2     O2        0.019938465637732    0.021965007507941    0.732571878936682  0.0000
  O3     O3        0.480115911560783    0.985826674617866    0.720023200977844  0.0000
  O3     O3        0.580075723854534    0.229109518355258    0.113488556358927  0.0000
  O2     O2        0.905898221533308    0.829680387700563    0.110000098245133  0.0000
  O3     O3        0.404786653328219    0.223162305588022    0.885590021938713  0.0000
  O3     O3        0.075044024154396    0.788140121632386    0.893868236377735  0.0000
  O3     O3        0.363531638252928    0.865654997835029    0.883101321017067  0.0000
  O2     O2        0.131767139599401    0.109795468952517    0.897863080291307  0.0000
  O2     O2        0.634588284165365    0.910359711457650    0.105479762297084  0.0000
  O2     O2        0.878834741215159    0.172918845126100    0.118321371324467  0.0000
  O3     O3        0.507576615969109    0.962298195384245    0.986116421673750  0.0000
  O2     O2        0.991083855553411    0.057080358274799    0.979767464593459  0.0000
  O2     O2        0.141522153189426    0.477755497022237    0.303672938494827  0.0000
  O2     O2        0.368355309638115    0.534590866893480    0.297680377737475  0.0000
  O2     O2        0.862321846118804    0.492406064235493    0.699805632541046  0.0000
  O2     O2        0.636360055766393    0.528727110763375    0.698664363970505  0.0000
  O2     O2        0.266207326258290    0.276548901647854    0.318772759871227  0.0000
  O2     O2        0.244138713169939    0.737663642724758    0.323118164316253  0.0000
  O2     O2        0.741329876174052    0.275611506414314    0.681768509779569  0.0000
  O2     O2        0.757122770052823    0.744510493137263    0.680330275675549  0.0000
  O2     O2        0.161236095087762    0.215488425059109    0.137380305610074  0.0000
  O2     O2        0.335208966255385    0.785310382861526    0.127218524248670  0.0000
  O2     O2        0.833210649193097    0.256292457556983    0.880805908734749  0.0000
  O2     O2        0.658035842800365    0.789097946259624    0.867875397944371  0.0000
  O2     O2        0.861761138588505    0.751546049108875    0.871963717226423  0.0000
  O3     O3        0.637415264311466    0.278008994703597    0.870047236362421  0.0000
  O3     O3        0.132153254764490    0.740874153348405    0.143968357329734  0.0000
  O2     O2        0.366388278879238    0.274264211959734    0.125098201990475  0.0000
  O3     O3        0.626835223327278    0.566685936887805    0.049360999795018  0.0000
  O2     O2        0.870943435546922    0.504248692107219    0.050345525282268  0.0000
  O2     O2        0.365262660127359    0.536163035574784    0.958429328774942  0.0000
  O3     O3        0.122544204867705    0.449947438429241    0.965291368291520  0.0000
  O3     O3        0.743315632634665    0.311497113445671    0.079604049982196  0.0000
  O2     O2        0.759658433324820    0.737743119772142    0.057739216474903  0.0000
  O2     O2        0.257060998422868    0.289340111561259    0.946186388270607  0.0000
  O3     O3        0.235108198499977    0.715196766652566    0.936257331429942  0.0000
