data_c00413.vasp
_audit_creation_method             Generated by GULP
_audit_author_name                 Salvador R. G. Balestra
_symmetry_space_group_name_H-M     'P 1             '
_symmetry_Int_Tables_number        1

loop_
_symmetry_equiv_pos_site_id
_symmetry_equiv_pos_as_xyz
_cell_length_a                       17.0559
_cell_length_b                        7.5940
_cell_length_c                       10.3443
_cell_angle_alpha                   90.8521
_cell_angle_beta                    90.3524
_cell_angle_gamma                   89.4372

loop_
_atom_site_label
_atom_site_type_symbol
_atom_site_fract_x
_atom_site_fract_y
_atom_site_fract_z
_atom_site_charge
  Ge     Ge        0.052090000000021    0.000000000000000    0.372269999999958  0.0000
  Ge     Ge        0.450830244005119    0.958130858243642    0.863400183876601  0.0000
  Ge     Ge        0.672164980140320    0.266767674655838    0.017383466175601  0.0000
  Ge     Ge        0.357648540245786    0.632076173545827    0.963527299785942  0.0000
  Si     Si        0.453658802807359    0.972534558957049    0.356944368612699  0.0000
  Si     Si        0.953952548523953    0.984634454495309    0.637438605275076  0.0000
  Si     Si        0.554092402271007    0.980071208210189    0.611825636820721  0.0000
  Si     Si        0.559209156567170    0.989150837561982    0.109002752014011  0.0000
  Si     Si        0.945150245637665    0.991316672982677    0.120990115682628  0.0000
  Si     Si        0.058635728523294    0.971972670178722    0.890761617955264  0.0000
  Si     Si        0.156009171059321    0.305107615958143    0.282367702185925  0.0000
  Si     Si        0.354518188005305    0.662287297891817    0.271291131520543  0.0000
  Si     Si        0.849063994021013    0.298101181641703    0.711483496895134  0.0000
  Si     Si        0.656038457230911    0.673596343011635    0.713106340694101  0.0000
  Si     Si        0.836766517862672    0.700909685373120    0.712565562198536  0.0000
  Si     Si        0.670041940306780    0.264738305036343    0.710356668737985  0.0000
  Si     Si        0.175481892819640    0.708680880933166    0.267448700617835  0.0000
  Si     Si        0.336696701192464    0.258349324857917    0.280631686706743  0.0000
  Si     Si        0.835066580130404    0.705941397451443    0.014211114457268  0.0000
  Si     Si        0.333162507967452    0.230376160244113    0.979373110913456  0.0000
  Si     Si        0.173916149231486    0.684383814949208    0.965538383597204  0.0000
  Si     Si        0.151695923479919    0.289658342919363    0.983939420422739  0.0000
  Si     Si        0.652506367354055    0.671296718476946    0.012014596010723  0.0000
  Si     Si        0.854406384985896    0.309717240896295    0.016422530553792  0.0000
  O3     O3        0.095727821621505    0.204455538526785    0.370296193669839  0.0000
  O2     O2        0.413157253563077    0.781389808230469    0.358105474727512  0.0000
  O2     O2        0.910490998216101    0.175358655687421    0.634063951777613  0.0000
  O2     O2        0.596418310684492    0.789788829387875    0.628968157883054  0.0000
  O2     O2        0.887273973040449    0.834173911749118    0.629056305676188  0.0000
  O2     O2        0.617507041055898    0.135872628694580    0.622238908459360  0.0000
  O3     O3        0.125380598550119    0.846616984095814    0.347807788772645  0.0000
  O2     O2        0.387181175352843    0.125897477374542    0.369474062258312  0.0000
  O3     O3        0.013649353275336    0.965623696553369    0.522351427932559  0.0000
  O2     O2        0.516169569508522    0.986372039690764    0.470952663611154  0.0000
  O3     O3        0.974812091935636    0.980829739682826    0.265738985640279  0.0000
  O2     O2        0.499694507761377    0.001095258179154    0.225357871945865  0.0000
  O2     O2        0.001621032476920    0.960168494970907    0.769668389230629  0.0000
  O3     O3        0.484755493049571    0.006431160130678    0.712924613727796  0.0000
  O3     O3        0.628510013600999    0.127757862725099    0.123121821861759  0.0000
  O2     O2        0.872902776533153    0.857109798848673    0.102760572408574  0.0000
  O3     O3        0.363238898508178    0.069451663040053    0.894565178936908  0.0000
  O2     O2        0.125835380184320    0.822203999242783    0.878135689462153  0.0000
  O1     O1        0.425735116547023    0.741567201255897    0.876054519764775  0.0000
  O2     O2        0.096420751155233    0.166184175905296    0.896171733458184  0.0000
  O2     O2        0.596211044916533    0.792226815123857    0.099768890247798  0.0000
  O2     O2        0.917902501821042    0.191251125934988    0.090922901857368  0.0000
  O3     O3        0.516172014283801    0.038062133962587    0.976183973136851  0.0000
  O2     O2        0.013072077847953    0.931974781217528    0.022542365904306  0.0000
  O2     O2        0.142668213852072    0.514068816684280    0.295005983025777  0.0000
  O2     O2        0.369756294750274    0.455835856102330    0.299192031496348  0.0000
  O2     O2        0.866711768833484    0.502053166988375    0.682561906866177  0.0000
  O2     O2        0.639877359113374    0.466136370486011    0.693347699767876  0.0000
  O2     O2        0.245536925794286    0.254128506969333    0.321083792507174  0.0000
  O2     O2        0.266128385638805    0.715464474047807    0.311611423746379  0.0000
  O2     O2        0.760754389943089    0.251677172149697    0.666323107870743  0.0000
  O2     O2        0.745093271423007    0.717744959507277    0.674473538782015  0.0000
  O2     O2        0.138102626351927    0.243172422921019    0.134180315637649  0.0000
  O3     O3        0.369286365790833    0.701453647021430    0.122503980658795  0.0000
  O2     O2        0.856890017532682    0.263611709319778    0.863895058319828  0.0000
  O2     O2        0.639336387006096    0.726521739583071    0.862345216507744  0.0000
  O2     O2        0.845941954000822    0.750463081616218    0.863784105410032  0.0000
  O3     O3        0.663882757972806    0.203632505277997    0.857037707351174  0.0000
  O2     O2        0.172537380410937    0.749507376979207    0.115038049906619  0.0000
  O2     O2        0.344700944618027    0.195166277874105    0.132264035111773  0.0000
  O3     O3        0.629335784700647    0.472920088547439    0.033184609830252  0.0000
  O2     O2        0.874477449115680    0.515539269196572    0.042401275870391  0.0000
  O3     O3        0.377078503593994    0.409940707589858    0.945806547007891  0.0000
  O2     O2        0.131993313402136    0.493441234030101    0.955008003910278  0.0000
  O3     O3        0.768471567747762    0.271463364017713    0.066534374490472  0.0000
  O2     O2        0.743486013458491    0.699464019999875    0.048729492864765  0.0000
  O2     O2        0.241587005879918    0.256861769817360    0.947709046681787  0.0000
  O3     O3        0.261864690432223    0.674592927200910    0.915637221468631  0.0000
