data_c00453.vasp
_audit_creation_method             Generated by GULP
_audit_author_name                 Salvador R. G. Balestra
_symmetry_space_group_name_H-M     'P 1             '
_symmetry_Int_Tables_number        1

loop_
_symmetry_equiv_pos_site_id
_symmetry_equiv_pos_as_xyz
_cell_length_a                       17.2118
_cell_length_b                        7.6506
_cell_length_c                       10.1603
_cell_angle_alpha                   89.7252
_cell_angle_beta                    89.6035
_cell_angle_gamma                   90.1318

loop_
_atom_site_label
_atom_site_type_symbol
_atom_site_fract_x
_atom_site_fract_y
_atom_site_fract_z
_atom_site_charge
  Ge     Ge        0.052090000000021    0.000000000000000    0.372269999999958  0.0000
  Ge     Ge        0.056104152089028    0.014191609805065    0.877069387414127  0.0000
  Ge     Ge        0.339018657124609    0.732638503420869    0.299099600818881  0.0000
  Ge     Ge        0.831557541317788    0.312144584712344    0.049881906150528  0.0000
  Si     Si        0.455165187431294    0.020879254188267    0.379241556566748  0.0000
  Si     Si        0.947638015578741    0.015644863586803    0.628448839842457  0.0000
  Si     Si        0.553090467036204    0.025928896407533    0.636321338838266  0.0000
  Si     Si        0.552508263665030    0.021588517962814    0.117541233279671  0.0000
  Si     Si        0.944465646054338    0.023846859313436    0.119717603706514  0.0000
  Si     Si        0.440828967120609    0.024964337199211    0.877119982682304  0.0000
  Si     Si        0.171525581914718    0.287641992933907    0.294213083462942  0.0000
  Si     Si        0.835685322208595    0.307703645811086    0.735389604523357  0.0000
  Si     Si        0.664285358410403    0.730212426461827    0.729886264520561  0.0000
  Si     Si        0.842931604108882    0.713007273136997    0.731893052645165  0.0000
  Si     Si        0.658600270145903    0.329301762638182    0.734013286189605  0.0000
  Si     Si        0.157067421399689    0.692181459862477    0.303508696813998  0.0000
  Si     Si        0.352235986635610    0.324645022835557    0.291187969557051  0.0000
  Si     Si        0.650942977917245    0.338551404300230    0.044716868479724  0.0000
  Si     Si        0.844514316559080    0.713328436674419    0.038643055312088  0.0000
  Si     Si        0.349686847132437    0.337673080677451    0.985195705444419  0.0000
  Si     Si        0.153722062714893    0.700998488865164    0.996559771491710  0.0000
  Si     Si        0.333055758704656    0.737523073785385    0.984997392134771  0.0000
  Si     Si        0.169430125390218    0.299712757842024    0.990276228438432  0.0000
  Si     Si        0.664170193169551    0.733022834839022    0.037265408635793  0.0000
  O3     O3        0.123597362231705    0.159034885709192    0.386736778146446  0.0000
  O3     O3        0.394360056854141    0.864779310007494    0.397382302593172  0.0000
  O2     O2        0.891762317023785    0.180959389490020    0.653676131903755  0.0000
  O2     O2        0.610778969572884    0.861185959019882    0.647761914272658  0.0000
  O2     O2        0.901105584923346    0.833177045874085    0.647875674918049  0.0000
  O2     O2        0.599627409253076    0.205567276426224    0.657496802737729  0.0000
  O3     O3        0.095639906159269    0.797970416691062    0.389860872076269  0.0000
  O2     O2        0.407600640215213    0.201674890976131    0.376876988807979  0.0000
  O3     O3        0.976013310216168    0.026169365986459    0.479011092739246  0.0000
  O2     O2        0.519919832912259    0.027563306034686    0.490332840136852  0.0000
  O3     O3        0.015246147791435    0.020495009913210    0.216378287875392  0.0000
  O2     O2        0.498274557892831    0.988291430194062    0.241380634554992  0.0000
  O3     O3        0.024509483812005    0.017610372033186    0.716550948209472  0.0000
  O2     O2        0.479928716160160    0.011629537720521    0.734486792102263  0.0000
  O2     O2        0.588035899759083    0.217251852274206    0.119165311258260  0.0000
  O2     O2        0.897467609792961    0.840359926852105    0.124331016151900  0.0000
  O2     O2        0.404050960922836    0.218113893945947    0.893320766440851  0.0000
  O3     O3        0.093490170630664    0.809756548748389    0.912490876303894  0.0000
  O2     O2        0.375146699980228    0.875342719901838    0.888132227438177  0.0000
  O3     O3        0.127111555459465    0.172153272212341    0.892123713383453  0.0000
  O2     O2        0.621354375461903    0.879136091464861    0.122608590371274  0.0000
  O3     O3        0.883258565335484    0.175892064746552    0.150140040377672  0.0000
  O2     O2        0.505607907092340    0.987797872778965    0.985194915789134  0.0000
  O3     O3        0.977544062555312    0.062329496343326    0.973860376723819  0.0000
  O2     O2        0.143668485248846    0.485414154015588    0.320519373655985  0.0000
  O3     O3        0.370337173673574    0.521789944586247    0.325358192212286  0.0000
  O2     O2        0.862752180747731    0.508650042870698    0.711323077562473  0.0000
  O2     O2        0.637898179140334    0.531046120752734    0.702386525109472  0.0000
  O2     O2        0.263006950619778    0.274606584151896    0.324320369314910  0.0000
  O3     O3        0.243069640425205    0.745476689840694    0.346477125414518  0.0000
  O2     O2        0.746479367741960    0.287723016610682    0.687343928133426  0.0000
  O2     O2        0.754566458418083    0.752761513371077    0.688425626653588  0.0000
  O2     O2        0.156697142210293    0.236581784168196    0.141417977025464  0.0000
  O3     O3        0.346990223556448    0.790001720409460    0.135025073642121  0.0000
  O3     O3        0.839179718588581    0.254614992183518    0.886680294161855  0.0000
  O2     O2        0.655546964173018    0.776670798770033    0.883184411513426  0.0000
  O2     O2        0.855208252969885    0.760598994143315    0.884408407274640  0.0000
  O2     O2        0.651314023786605    0.293787353656739    0.889641442467591  0.0000
  O2     O2        0.145278288202228    0.748645926101333    0.150617725225931  0.0000
  O2     O2        0.368204296527801    0.290454215932694    0.136282238826627  0.0000
  O2     O2        0.628082159686787    0.541414367937040    0.067547219406291  0.0000
  O3     O3        0.870097698415132    0.518603679673139    0.068263643392724  0.0000
  O2     O2        0.366821048445964    0.542537139888271    0.958910081828452  0.0000
  O2     O2        0.136314160267884    0.495910368531382    0.974717137458158  0.0000
  O3     O3        0.735857636536250    0.304200926613114    0.099928325233433  0.0000
  O2     O2        0.754104008031534    0.735169604404295    0.077748255303096  0.0000
  O2     O2        0.260437253326502    0.296874078760581    0.954156133612504  0.0000
  O2     O2        0.241846421933922    0.743973196602474    0.951409732723167  0.0000
