data_c00452.vasp
_audit_creation_method             Generated by GULP
_audit_author_name                 Salvador R. G. Balestra
_symmetry_space_group_name_H-M     'P 1             '
_symmetry_Int_Tables_number        1

loop_
_symmetry_equiv_pos_site_id
_symmetry_equiv_pos_as_xyz
_cell_length_a                       17.2507
_cell_length_b                        7.6574
_cell_length_c                       10.1551
_cell_angle_alpha                   89.4940
_cell_angle_beta                    89.5516
_cell_angle_gamma                   89.9941

loop_
_atom_site_label
_atom_site_type_symbol
_atom_site_fract_x
_atom_site_fract_y
_atom_site_fract_z
_atom_site_charge
  Ge     Ge        0.052090000000021    0.000000000000000    0.372269999999958  0.0000
  Ge     Ge        0.064295434950550    0.010553711670466    0.892025762241921  0.0000
  Ge     Ge        0.341920842984237    0.727367372387922    0.281861915914222  0.0000
  Ge     Ge        0.673608037152073    0.726283348091900    0.023106686628948  0.0000
  Si     Si        0.456530744889612    0.018334541222873    0.362839758081824  0.0000
  Si     Si        0.954186040730405    0.010979764865118    0.639130536661652  0.0000
  Si     Si        0.559884192407968    0.023778793747897    0.614602930895775  0.0000
  Si     Si        0.562044387607265    0.013007193440733    0.109046404582411  0.0000
  Si     Si        0.947560725795048    0.007918218334131    0.126783267380581  0.0000
  Si     Si        0.454971691714525    0.015570518625950    0.865676827191364  0.0000
  Si     Si        0.172481005170918    0.289838524539922    0.266372543324329  0.0000
  Si     Si        0.841549898769160    0.304869173275811    0.706081814993439  0.0000
  Si     Si        0.670875323297327    0.729279712665308    0.709403839772659  0.0000
  Si     Si        0.847930750939891    0.703081493853655    0.705294523290079  0.0000
  Si     Si        0.662824114595749    0.324882381005515    0.711265120221290  0.0000
  Si     Si        0.160413383367384    0.698603996309447    0.269922642957441  0.0000
  Si     Si        0.350701567037493    0.318270540372071    0.280777113078912  0.0000
  Si     Si        0.659922218737471    0.323584095354519    0.017337542072993  0.0000
  Si     Si        0.853784748338695    0.695722848797462    0.016906760059507  0.0000
  Si     Si        0.358852698930808    0.327105886115196    0.971709747224446  0.0000
  Si     Si        0.166878564129684    0.697173011048584    0.964107487099384  0.0000
  Si     Si        0.346270357367660    0.726136093039531    0.967287220829247  0.0000
  Si     Si        0.180323031643667    0.297042355527445    0.961607883465363  0.0000
  Si     Si        0.840168772955595    0.300703293655887    0.014496410011891  0.0000
  O3     O3        0.117579290021359    0.167846200769152    0.351774476244357  0.0000
  O3     O3        0.399218115725327    0.855884565354128    0.378718710577882  0.0000
  O2     O2        0.893408397401746    0.171823547351691    0.621819393230288  0.0000
  O2     O2        0.617237796123487    0.858205846207434    0.624354802662811  0.0000
  O2     O2        0.906962588034866    0.828584712304014    0.626874076188273  0.0000
  O2     O2        0.606986623692340    0.204769615353378    0.625601745720112  0.0000
  O3     O3        0.096331241197527    0.800228875884216    0.351948787649614  0.0000
  O2     O2        0.404894786698948    0.193516795768159    0.367890777138852  0.0000
  O3     O3        0.022028680738009    0.017093021586411    0.533849220584378  0.0000
  O2     O2        0.522113166582289    0.021510723970783    0.472077627204754  0.0000
  O3     O3        0.969298811155594    0.013079898961102    0.278757817466861  0.0000
  O2     O2        0.498601225000249    0.006324169604661    0.222173726199797  0.0000
  O3     O3        0.990880070710515    0.026875900575660    0.782442631889684  0.0000
  O2     O2        0.490638653136563    0.013497924106378    0.720371952185372  0.0000
  O2     O2        0.605954216549953    0.198979865029590    0.106139455381529  0.0000
  O2     O2        0.917371459380503    0.815662221310231    0.085871544707464  0.0000
  O2     O2        0.417556941083421    0.205694457473189    0.890837520089889  0.0000
  O3     O3        0.110276793704528    0.810756628327905    0.875990699693848  0.0000
  O2     O2        0.391148200004825    0.862550946172645    0.873346436166815  0.0000
  O3     O3        0.134132155909878    0.170906399220824    0.868120159966746  0.0000
  O3     O3        0.624861887514386    0.862551949121232    0.127378329067635  0.0000
  O2     O2        0.882545095654264    0.154248706746917    0.099686476081962  0.0000
  O2     O2        0.521871500529199    0.973912592401222    0.969668634150945  0.0000
  O3     O3        0.025404999180601    0.046417977121646    0.046276951160262  0.0000
  O2     O2        0.148279134207066    0.491124684490966    0.285924869134921  0.0000
  O3     O3        0.368095311917688    0.514975054371354    0.316531598380642  0.0000
  O2     O2        0.869385798884586    0.502320133220525    0.673665562282468  0.0000
  O2     O2        0.642942447261559    0.529161389619826    0.689997252408409  0.0000
  O2     O2        0.261440421623284    0.267739655405114    0.311823357136838  0.0000
  O3     O3        0.245084180990027    0.753417279344799    0.318894423010452  0.0000
  O2     O2        0.751373943465617    0.285999621602927    0.668432161847692  0.0000
  O2     O2        0.760228142109334    0.744943029856655    0.660756885202969  0.0000
  O2     O2        0.166556944885064    0.236541032228490    0.113229823163286  0.0000
  O3     O3        0.357154633321730    0.778149670068374    0.117840325939542  0.0000
  O2     O2        0.851147011002214    0.260295547965243    0.860445940820114  0.0000
  O3     O3        0.665725367437169    0.785829333578061    0.859982088405367  0.0000
  O2     O2        0.854522620132520    0.735193567571209    0.860940989951779  0.0000
  O2     O2        0.649675380396896    0.274610679279620    0.864024058264396  0.0000
  O2     O2        0.152432184455878    0.752469418345479    0.115926142701964  0.0000
  O2     O2        0.367915390437621    0.286454537436006    0.126119473454173  0.0000
  O3     O3        0.635650496050249    0.519520171754241    0.043859365948989  0.0000
  O2     O2        0.875344305355521    0.492223660042648    0.044323017161078  0.0000
  O2     O2        0.379133426367393    0.530147431248225    0.943818307375547  0.0000
  O2     O2        0.148869462559208    0.493793891528136    0.942472591537866  0.0000
  O2     O2        0.749972613108975    0.297438343340814    0.054645846548502  0.0000
  O3     O3        0.768998957656924    0.733993515503759    0.071848096901098  0.0000
  O2     O2        0.271460665928329    0.288147797772985    0.926660105231123  0.0000
  O2     O2        0.256311560868234    0.734975486177040    0.927851658577867  0.0000
