data_c00446.vasp
_audit_creation_method             Generated by GULP
_audit_author_name                 Salvador R. G. Balestra
_symmetry_space_group_name_H-M     'P 1             '
_symmetry_Int_Tables_number        1

loop_
_symmetry_equiv_pos_site_id
_symmetry_equiv_pos_as_xyz
_cell_length_a                       17.2604
_cell_length_b                        7.6604
_cell_length_c                       10.1575
_cell_angle_alpha                   89.3169
_cell_angle_beta                    89.8345
_cell_angle_gamma                   89.8043

loop_
_atom_site_label
_atom_site_type_symbol
_atom_site_fract_x
_atom_site_fract_y
_atom_site_fract_z
_atom_site_charge
  Ge     Ge        0.052090000000021    0.000000000000000    0.372269999999958  0.0000
  Ge     Ge        0.063779050512029    0.007903088223498    0.891396630175158  0.0000
  Ge     Ge        0.350861356145817    0.682369516912563    0.286021302092112  0.0000
  Ge     Ge        0.672325777182666    0.288441142677003    0.021868698378866  0.0000
  Si     Si        0.456213267243288    0.983439364154291    0.361845815935216  0.0000
  Si     Si        0.953423709296264    0.009610584320157    0.638023656776304  0.0000
  Si     Si        0.558474327692387    0.005259002323704    0.614333076121061  0.0000
  Si     Si        0.562574609117167    0.997203431126419    0.109309033639072  0.0000
  Si     Si        0.947876044347251    0.001387936061658    0.125719659144330  0.0000
  Si     Si        0.454160333134298    0.003624945013707    0.865690987525519  0.0000
  Si     Si        0.163140776560231    0.298809650422527    0.264311981129643  0.0000
  Si     Si        0.846892547384777    0.316471887093672    0.702892663841846  0.0000
  Si     Si        0.662286277778450    0.699865817999537    0.708825142160193  0.0000
  Si     Si        0.841046277254538    0.714876821643594    0.703912154982416  0.0000
  Si     Si        0.669850791284754    0.295234891230501    0.708034430253544  0.0000
  Si     Si        0.170138613856356    0.707794827420783    0.270888038631848  0.0000
  Si     Si        0.342177301406788    0.274194011675313    0.274341322482443  0.0000
  Si     Si        0.841554409581366    0.710235327062282    0.012150863921243  0.0000
  Si     Si        0.345892759228009    0.294143806752647    0.965857236609698  0.0000
  Si     Si        0.179354029408094    0.717488117451865    0.964932616421871  0.0000
  Si     Si        0.358129575459808    0.691856406452471    0.971115486542131  0.0000
  Si     Si        0.166358231781617    0.317645336579515    0.961056911013852  0.0000
  Si     Si        0.661475602103581    0.691755828124918    0.014636747638116  0.0000
  Si     Si        0.852711559428240    0.315117102464341    0.014391921335738  0.0000
  O3     O3        0.104665467083841    0.189081293941100    0.351565993622045  0.0000
  O3     O3        0.413334921178451    0.801053744681788    0.381675311267377  0.0000
  O2     O2        0.905580752032138    0.191963157374912    0.624600169587437  0.0000
  O2     O2        0.605954475340032    0.823309348235933    0.623593510634171  0.0000
  O2     O2        0.893037345030009    0.849205416913273    0.620078858689321  0.0000
  O2     O2        0.615949879595354    0.169487451613529    0.623020987171826  0.0000
  O3     O3        0.109454985333302    0.818186378739559    0.353133143992039  0.0000
  O2     O2        0.389743186254247    0.132195889320830    0.358315347765290  0.0000
  O3     O3        0.021458139573516    0.000741875921146    0.533940379902935  0.0000
  O2     O2        0.518641469337193    0.018861834446865    0.473263764023354  0.0000
  O3     O3        0.969176775833135    0.998034356068138    0.278093587015786  0.0000
  O2     O2        0.500596981873044    0.984633795966927    0.223515142010687  0.0000
  O3     O3        0.989966592169198    0.993895746611260    0.782100172737610  0.0000
  O2     O2        0.490330720471016    0.011972600736603    0.721249225218804  0.0000
  O3     O3        0.622497341722876    0.152958873459184    0.126998813280100  0.0000
  O2     O2        0.884785057567120    0.852048943832036    0.098257481953279  0.0000
  O2     O2        0.391165213332880    0.158402686308614    0.875246383334640  0.0000
  O3     O3        0.133212192908185    0.846576233911124    0.871244081402511  0.0000
  O2     O2        0.415112106284397    0.814448545963306    0.885934731435321  0.0000
  O3     O3        0.110267092601334    0.206836163597754    0.871544537413456  0.0000
  O2     O2        0.609796635110883    0.815815778369220    0.104719521222966  0.0000
  O2     O2        0.916142081263674    0.192704650672671    0.083340920903781  0.0000
  O2     O2        0.520909348828583    0.038181035290588    0.970832732559061  0.0000
  O3     O3        0.026024082483761    0.967708724891955    0.046159263979965  0.0000
  O2     O2        0.148355749203642    0.503857303103610    0.283513103006513  0.0000
  O3     O3        0.369273191707322    0.464567576471679    0.314456589188182  0.0000
  O2     O2        0.868234984503325    0.517893242972197    0.671134589077218  0.0000
  O2     O2        0.642344992014722    0.496285488377302    0.687898587762488  0.0000
  O2     O2        0.251103904960740    0.251362998649271    0.305817151235968  0.0000
  O3     O3        0.256328220151264    0.733215827768422    0.325107046416140  0.0000
  O2     O2        0.758849714304124    0.277990564186626    0.659048898879411  0.0000
  O2     O2        0.750864021280877    0.737922524843915    0.666287659869851  0.0000
  O2     O2        0.150519188924130    0.250968324041368    0.111080937873828  0.0000
  O3     O3        0.368910389216667    0.734161821165772    0.122956563284028  0.0000
  O2     O2        0.853523307147703    0.280120895713489    0.858499241850605  0.0000
  O2     O2        0.650079156513399    0.745884058349405    0.861672691565035  0.0000
  O2     O2        0.851932958119556    0.754914378014527    0.858138359493246  0.0000
  O3     O3        0.664229198997452    0.234314348955234    0.858510599101139  0.0000
  O2     O2        0.168922976859640    0.769859031256271    0.117929994724649  0.0000
  O2     O2        0.356447716655627    0.243863350576689    0.118970731653972  0.0000
  O3     O3        0.635946014342720    0.496240938514001    0.041469711304678  0.0000
  O2     O2        0.875573403257763    0.516780881980482    0.041911863089897  0.0000
  O2     O2        0.378956953112179    0.489363844796556    0.942324795434766  0.0000
  O2     O2        0.147378189813610    0.521893010288358    0.944385291559112  0.0000
  O3     O3        0.768067557863346    0.276464096575246    0.069361172261907  0.0000
  O2     O2        0.751557105448657    0.714142886062622    0.051795422987018  0.0000
  O2     O2        0.256168682046396    0.284569873800993    0.925354412602437  0.0000
  O2     O2        0.269858566101114    0.727467283057772    0.927852122155613  0.0000
