data_c00450.vasp
_audit_creation_method             Generated by GULP
_audit_author_name                 Salvador R. G. Balestra
_symmetry_space_group_name_H-M     'P 1             '
_symmetry_Int_Tables_number        1

loop_
_symmetry_equiv_pos_site_id
_symmetry_equiv_pos_as_xyz
_cell_length_a                       17.1018
_cell_length_b                        7.6350
_cell_length_c                       10.2357
_cell_angle_alpha                   89.6700
_cell_angle_beta                    89.5531
_cell_angle_gamma                   90.6383

loop_
_atom_site_label
_atom_site_type_symbol
_atom_site_fract_x
_atom_site_fract_y
_atom_site_fract_z
_atom_site_charge
  Ge     Ge        0.052090000000021    0.000000000000000    0.372269999999958  0.0000
  Ge     Ge        0.058932299361441    0.004195320333534    0.897650961045832  0.0000
  Ge     Ge        0.335269678220552    0.749336344226959    0.277371027087840  0.0000
  Ge     Ge        0.334221389531858    0.751095352037052    0.959121020643415  0.0000
  Si     Si        0.456187966467449    0.031393269870127    0.357728804343516  0.0000
  Si     Si        0.955577855483089    0.027263541310483    0.638589120232135  0.0000
  Si     Si        0.558972713840474    0.031984372801639    0.609816360776996  0.0000
  Si     Si        0.554242207349948    0.010531629889371    0.096673913283347  0.0000
  Si     Si        0.942004124876028    0.022712173848111    0.134074265768481  0.0000
  Si     Si        0.446706827637677    0.035793241406630    0.854016322935587  0.0000
  Si     Si        0.176712984186918    0.286313950957029    0.270507415945529  0.0000
  Si     Si        0.843189690502578    0.318739125724035    0.710359230962767  0.0000
  Si     Si        0.668121988615392    0.735561274124276    0.709657140181229  0.0000
  Si     Si        0.848589482439555    0.720427297135942    0.712642153457414  0.0000
  Si     Si        0.662493731995010    0.333677661162772    0.704885143104550  0.0000
  Si     Si        0.154823213379572    0.689095130320486    0.271929783903251  0.0000
  Si     Si        0.356813767598150    0.339396973689559    0.271827847402053  0.0000
  Si     Si        0.655231530776672    0.325953019265095    0.009152772940546  0.0000
  Si     Si        0.846630756801877    0.711450627171216    0.018041935820613  0.0000
  Si     Si        0.360067250766257    0.349311178410044    0.967380958327245  0.0000
  Si     Si        0.154099108207250    0.680305758601138    0.964417585009640  0.0000
  Si     Si        0.179740597704714    0.287217071211197    0.967686921663335  0.0000
  Si     Si        0.666147220856230    0.725135460147979    0.014812863556644  0.0000
  Si     Si        0.836212639078717    0.311697534297703    0.015484084641602  0.0000
  O3     O3        0.127607359466377    0.149581870068163    0.355033492612202  0.0000
  O3     O3        0.389332854186122    0.885859268020033    0.376006985830255  0.0000
  O2     O2        0.896135199169199    0.191002919208503    0.623718317779901  0.0000
  O2     O2        0.615770651368473    0.866538592842729    0.626449968925709  0.0000
  O2     O2        0.905917984681079    0.845397078642304    0.629136434304490  0.0000
  O2     O2        0.609042062680612    0.211368666090542    0.615540165654928  0.0000
  O3     O3        0.086732482307909    0.792009704289332    0.344323701386656  0.0000
  O2     O2        0.415545713466700    0.221384751146163    0.355866720267835  0.0000
  O3     O3        0.023077256912149    0.024869060043756    0.532754452817738  0.0000
  O2     O2        0.520431507546315    0.022566021485156    0.469325679905692  0.0000
  O3     O3        0.968357148787935    0.032353998933264    0.282609933833897  0.0000
  O2     O2        0.500395293995198    0.992475860443696    0.222449213050760  0.0000
  O3     O3        0.993031918776065    0.048036455593127    0.779930444037677  0.0000
  O2     O2        0.490481960558219    0.031037360775212    0.716444192928067  0.0000
  O2     O2        0.596797918878909    0.200663423497248    0.090729459086084  0.0000
  O2     O2        0.903124007129362    0.833084772227208    0.102669443487395  0.0000
  O2     O2        0.417416985360137    0.232774966468826    0.879673268976642  0.0000
  O3     O3        0.088889844349659    0.788880533628962    0.890253713810389  0.0000
  O3     O3        0.375068301335412    0.901357103430118    0.852262845871245  0.0000
  O3     O3        0.140055583375416    0.141635418172596    0.880505231658795  0.0000
  O2     O2        0.618568878841898    0.858089063636126    0.104109026321358  0.0000
  O2     O2        0.880701265129489    0.176115922845300    0.105930288044275  0.0000
  O2     O2        0.502831310405381    0.971523498837608    0.969937828309767  0.0000
  O3     O3        0.019471570401592    0.050099170566720    0.048683478902184  0.0000
  O2     O2        0.142275804616361    0.480458408362581    0.291183529937131  0.0000
  O3     O3        0.372544568214828    0.540990348747896    0.296761114855517  0.0000
  O2     O2        0.868759237425405    0.519343815391089    0.681028713212426  0.0000
  O2     O2        0.643347871461436    0.536335891177923    0.676075345212272  0.0000
  O2     O2        0.267604037971090    0.287402832521701    0.311971871679764  0.0000
  O3     O3        0.238499923824935    0.747164590620380    0.327546431568117  0.0000
  O2     O2        0.752673944721361    0.293806177578765    0.672291178703549  0.0000
  O2     O2        0.759494601899476    0.763325646874398    0.674718500847657  0.0000
  O2     O2        0.171374748579777    0.228937340196572    0.119354595304558  0.0000
  O1     O1        0.340439666047585    0.816972045089396    0.117871636940096  0.0000
  O2     O2        0.852915404319761    0.272848301654034    0.863477676050930  0.0000
  O2     O2        0.655462523980060    0.773248166749081    0.862691205272439  0.0000
  O2     O2        0.862316353331958    0.756379647926572    0.866059596602940  0.0000
  O2     O2        0.643597477709289    0.287672861899290    0.855911235518645  0.0000
  O2     O2        0.154368841033714    0.735356716848780    0.117406627890400  0.0000
  O2     O2        0.370869906460094    0.296538619362566    0.118979909948581  0.0000
  O2     O2        0.635470766067090    0.527161644603319    0.041541520196365  0.0000
  O2     O2        0.865708479312886    0.508573370145713    0.047824332367172  0.0000
  O3     O3        0.380262773280688    0.550339959951895    0.945046620625982  0.0000
  O2     O2        0.136714311517764    0.473482826212449    0.948126607393912  0.0000
  O2     O2        0.744485837741564    0.289035757820326    0.047279267994869  0.0000
  O2     O2        0.756555451513506    0.745654660863603    0.053844641044663  0.0000
  O2     O2        0.270322242939471    0.310575936701874    0.927722966655938  0.0000
  O3     O3        0.238986859023419    0.728544350548096    0.908257807364151  0.0000
