data_c00426.vasp
_audit_creation_method             Generated by GULP
_audit_author_name                 Salvador R. G. Balestra
_symmetry_space_group_name_H-M     'P 1             '
_symmetry_Int_Tables_number        1

loop_
_symmetry_equiv_pos_site_id
_symmetry_equiv_pos_as_xyz
_cell_length_a                       17.3126
_cell_length_b                        7.6544
_cell_length_c                       10.1614
_cell_angle_alpha                   89.7423
_cell_angle_beta                    90.0374
_cell_angle_gamma                   90.1188

loop_
_atom_site_label
_atom_site_type_symbol
_atom_site_fract_x
_atom_site_fract_y
_atom_site_fract_z
_atom_site_charge
  Ge     Ge        0.052090000000021    0.000000000000000    0.372269999999958  0.0000
  Ge     Ge        0.062247886094481    0.013135878609094    0.887928719872224  0.0000
  Ge     Ge        0.177110305712447    0.288173427631579    0.261622890712158  0.0000
  Ge     Ge        0.343369872111029    0.741720653167323    0.269843046528743  0.0000
  Si     Si        0.462011205055891    0.027415682354641    0.348543823439726  0.0000
  Si     Si        0.952265053953462    0.014840522199795    0.635357133122629  0.0000
  Si     Si        0.558452177230564    0.024312867342164    0.608652499469715  0.0000
  Si     Si        0.563538039276032    0.012114918362911    0.092943269451348  0.0000
  Si     Si        0.947182618235024    0.013834813745289    0.125156379534894  0.0000
  Si     Si        0.451016310679378    0.027136691805077    0.853119211528482  0.0000
  Si     Si        0.841816496220762    0.311162278349463    0.701951224032314  0.0000
  Si     Si        0.668053573051673    0.725522753225106    0.705970531191682  0.0000
  Si     Si        0.845533673765734    0.711018843266205    0.701193676696807  0.0000
  Si     Si        0.663554947088685    0.324445359828773    0.705049595223167  0.0000
  Si     Si        0.162236312494773    0.706206867165183    0.264828349341441  0.0000
  Si     Si        0.356583001886181    0.330830207967825    0.269305613057438  0.0000
  Si     Si        0.663177989055045    0.323169046943190    0.012504176700834  0.0000
  Si     Si        0.849867317757129    0.705834496122702    0.010283597806192  0.0000
  Si     Si        0.355773600636861    0.338789297289855    0.957541873753042  0.0000
  Si     Si        0.165575121424944    0.702571535446616    0.960155226577023  0.0000
  Si     Si        0.343881918031693    0.736831816172554    0.955753227180314  0.0000
  Si     Si        0.179092612143742    0.299869681524987    0.952374183702455  0.0000
  Si     Si        0.672396986805025    0.720433553888400    0.014421576888076  0.0000
  Si     Si        0.841569450981423    0.308319170809006    0.010424674917909  0.0000
  O1     O1        0.118049141690645    0.164144526149378    0.356121921997867  0.0000
  O3     O3        0.397591842982394    0.879497309758444    0.365435319415172  0.0000
  O2     O2        0.894766444163917    0.181394013499742    0.617659861132060  0.0000
  O2     O2        0.612953465932086    0.855851660078553    0.626891267353186  0.0000
  O2     O2        0.901673848437694    0.837174913378584    0.619053118337093  0.0000
  O2     O2        0.608044627490887    0.201031312102554    0.621461589673395  0.0000
  O3     O3        0.097888878128001    0.803434032442593    0.348427821219929  0.0000
  O2     O2        0.420498620157597    0.215320632887864    0.343952065653568  0.0000
  O3     O3        0.020772085278169    0.014189502348800    0.533290615740968  0.0000
  O2     O2        0.524747454133798    0.020790635940294    0.463050003693013  0.0000
  O3     O3        0.969922108758908    0.017294290847052    0.276694712839504  0.0000
  O2     O2        0.505904970530312    0.991678711808573    0.212644155874183  0.0000
  O3     O3        0.987281813071929    0.025396538965879    0.780654272977531  0.0000
  O2     O2        0.486649982497438    0.022981944796574    0.708221133920135  0.0000
  O2     O2        0.607850024469895    0.198231056509677    0.097796607049524  0.0000
  O2     O2        0.908117969622351    0.828131216941719    0.089209050135440  0.0000
  O2     O2        0.413933551483374    0.217420796296038    0.876725284518674  0.0000
  O3     O3        0.108601558136678    0.813814505228323    0.871206651132663  0.0000
  O2     O2        0.387165972457995    0.874375765615290    0.861372734343480  0.0000
  O3     O3        0.128945306860323    0.178638811909195    0.858898744752369  0.0000
  O2     O2        0.624955367309032    0.854845705246820    0.102438297392434  0.0000
  O2     O2        0.889039503869467    0.172905336792310    0.096883741033220  0.0000
  O2     O2        0.517957499009123    0.990197380024839    0.957428517565748  0.0000
  O3     O3        0.025363768174191    0.039279751644940    0.044350787835662  0.0000
  O3     O3        0.148930185154961    0.501887248944120    0.278667698833377  0.0000
  O3     O3        0.372423429161158    0.530643599428912    0.300932252263860  0.0000
  O2     O2        0.865439265233932    0.510360207546551    0.667205822422629  0.0000
  O2     O2        0.643820618109519    0.526324657794377    0.673997789124092  0.0000
  O3     O3        0.271906339583361    0.271880300013517    0.314207089390736  0.0000
  O3     O3        0.247449201720642    0.761913196376672    0.312273161744306  0.0000
  O2     O2        0.751924824727692    0.282663624473708    0.666866090431831  0.0000
  O2     O2        0.757020796135876    0.754395677618013    0.663648447977293  0.0000
  O3     O3        0.171392429586062    0.223856583863502    0.099479879379793  0.0000
  O3     O3        0.355283969873959    0.792996006963303    0.105522267847230  0.0000
  O2     O2        0.854290596386513    0.271693423384545    0.856409760913063  0.0000
  O2     O2        0.660380809667762    0.763093010056024    0.860759803831803  0.0000
  O2     O2        0.859444860225555    0.743878415131725    0.855736612934375  0.0000
  O2     O2        0.649515662013083    0.284272147383344    0.858772192787535  0.0000
  O2     O2        0.154802857086396    0.764213404921698    0.111124450419994  0.0000
  O2     O2        0.361759821525659    0.297752254023346    0.112053018083786  0.0000
  O2     O2        0.643256078410883    0.523891154439771    0.045426752804149  0.0000
  O2     O2        0.870620982595277    0.504482861209813    0.042666559732735  0.0000
  O2     O2        0.377532513427655    0.541635596572102    0.932211890839949  0.0000
  O2     O2        0.146517236871293    0.497570332283234    0.947959294641774  0.0000
  O2     O2        0.752007959616062    0.285754079819244    0.048195502693912  0.0000
  O2     O2        0.761970058177131    0.742419842808358    0.052953284760930  0.0000
  O2     O2        0.268805073868444    0.300661816996467    0.908872038418266  0.0000
  O2     O2        0.253773892876260    0.738895555568577    0.917353497470361  0.0000
