data_c00429.vasp
_audit_creation_method             Generated by GULP
_audit_author_name                 Salvador R. G. Balestra
_symmetry_space_group_name_H-M     'P 1             '
_symmetry_Int_Tables_number        1

loop_
_symmetry_equiv_pos_site_id
_symmetry_equiv_pos_as_xyz
_cell_length_a                       17.2245
_cell_length_b                        7.6287
_cell_length_c                       10.2620
_cell_angle_alpha                   90.7267
_cell_angle_beta                    90.6807
_cell_angle_gamma                   89.3244

loop_
_atom_site_label
_atom_site_type_symbol
_atom_site_fract_x
_atom_site_fract_y
_atom_site_fract_z
_atom_site_charge
  Ge     Ge        0.052090000000021    0.000000000000000    0.372269999999958  0.0000
  Ge     Ge        0.055595472603548    0.979083561791901    0.886825239713045  0.0000
  Ge     Ge        0.157351113838875    0.306051432573659    0.270988113319120  0.0000
  Ge     Ge        0.835238475777972    0.677766889800607    0.699452418066892  0.0000
  Si     Si        0.456164017563410    0.969887233346467    0.356107895044246  0.0000
  Si     Si        0.951050126554197    0.963216182248825    0.627461290825077  0.0000
  Si     Si        0.547887125054637    0.962528748962032    0.623993021781047  0.0000
  Si     Si        0.561486862750512    0.971179973562346    0.110304656371106  0.0000
  Si     Si        0.944031995209606    0.970036610906992    0.126097589719766  0.0000
  Si     Si        0.444458938435188    0.962138343323423    0.874054245010545  0.0000
  Si     Si        0.353475296446198    0.663662020532640    0.263226998692676  0.0000
  Si     Si        0.843458686468178    0.267340774508611    0.702584038043330  0.0000
  Si     Si        0.653035208603287    0.654915125023903    0.705161978841248  0.0000
  Si     Si        0.663599071146194    0.250511938943007    0.708769671566509  0.0000
  Si     Si        0.174911998724001    0.717275022155835    0.259915129087905  0.0000
  Si     Si        0.338832545508116    0.263406051556201    0.270667703401012  0.0000
  Si     Si        0.668785659159225    0.258357994057980    0.012839893489045  0.0000
  Si     Si        0.837091758240296    0.681283035389399    0.010564424419269  0.0000
  Si     Si        0.332809080305951    0.253403447695211    0.963523313709311  0.0000
  Si     Si        0.174968313628100    0.695598203316406    0.958031715185176  0.0000
  Si     Si        0.353105373603935    0.647146093808176    0.959012718702641  0.0000
  Si     Si        0.154354633261219    0.295435499123988    0.963230663328464  0.0000
  Si     Si        0.658020230361302    0.657037185972128    0.011206349511101  0.0000
  Si     Si        0.848064427027167    0.279218901144021    0.007507164145479  0.0000
  O1     O1        0.089721715721794    0.205104995256054    0.362599512525538  0.0000
  O2     O2        0.412459008951980    0.785101023310691    0.343848027955987  0.0000
  O2     O2        0.898390452197356    0.140507604659801    0.617747881571729  0.0000
  O2     O2        0.590047664111664    0.772666196862101    0.628430548996854  0.0000
  O3     O3        0.893058912137473    0.802441659353554    0.603729492176884  0.0000
  O2     O2        0.612114765348800    0.114828224623773    0.626427233714034  0.0000
  O3     O3        0.129965877019376    0.861475665482202    0.342623613844008  0.0000
  O2     O2        0.394642356301981    0.129212512299348    0.346446929602715  0.0000
  O3     O3        0.021091271125041    0.965168410166683    0.529022797168561  0.0000
  O2     O2        0.497470137508604    0.979270576749572    0.494789643912769  0.0000
  O3     O3        0.970889993634489    0.969778325636372    0.274895548782083  0.0000
  O2     O2        0.522581171160618    0.985758858891063    0.249547840464424  0.0000
  O3     O3        0.985254701531658    0.945131049115209    0.772700013248416  0.0000
  O2     O2        0.490026944288868    0.988959070194982    0.742902053486900  0.0000
  O2     O2        0.624988192694722    0.123817868115075    0.103360442574786  0.0000
  O2     O2        0.883122821432884    0.813623642096042    0.104336661838976  0.0000
  O2     O2        0.374311181764189    0.102971277675401    0.878943756608609  0.0000
  O3     O3        0.129384402291290    0.824760903598204    0.865041023594947  0.0000
  O2     O2        0.410954544324888    0.764903758215823    0.876075182371954  0.0000
  O3     O3        0.095241283025870    0.185833394163742    0.874665445038546  0.0000
  O2     O2        0.602188842972025    0.780808178179570    0.096132504609941  0.0000
  O2     O2        0.906058791911742    0.159436344347528    0.091076479202000  0.0000
  O2     O2        0.498657823473752    0.002044546273486    0.997674229196618  0.0000
  O3     O3        0.018868187076488    0.939605420997591    0.038908062695422  0.0000
  O3     O3        0.139941538325223    0.527953209976259    0.285323300941317  0.0000
  O2     O2        0.370260830187451    0.460577497252859    0.295264582149715  0.0000
  O3     O3        0.862810157715554    0.463653437337425    0.669006496765605  0.0000
  O2     O2        0.636858138889852    0.449303123914207    0.678093564212867  0.0000
  O3     O3        0.251495749801596    0.253249007230136    0.319641734689764  0.0000
  O2     O2        0.265711205289212    0.713421511866776    0.302161383975941  0.0000
  O2     O2        0.753455121128310    0.225011316645655    0.670014289099833  0.0000
  O3     O3        0.738302419854336    0.702296733829273    0.659365992862721  0.0000
  O3     O3        0.142919714142087    0.237098644881594    0.111402636739826  0.0000
  O2     O2        0.366016604523249    0.697323378691725    0.110398272923202  0.0000
  O2     O2        0.860058191697028    0.232926744171008    0.855764213177399  0.0000
  O2     O2        0.645380582015273    0.697589373865461    0.859015861499880  0.0000
  O3     O3        0.847994716346740    0.733022808026452    0.861951944925564  0.0000
  O2     O2        0.654578593323281    0.209705890814190    0.861461537150435  0.0000
  O2     O2        0.168610953307046    0.764944267008289    0.107100719322593  0.0000
  O2     O2        0.339433774501394    0.215614331833733    0.116999350843843  0.0000
  O2     O2        0.637871331595043    0.455688098075463    0.041189963233250  0.0000
  O2     O2        0.868702269713771    0.482703940904058    0.032944626726461  0.0000
  O2     O2        0.371417610123777    0.441552648440658    0.933505337010110  0.0000
  O2     O2        0.137617132069320    0.502279638224248    0.948481869763479  0.0000
  O2     O2        0.759837514594206    0.243589273374010    0.047621718990770  0.0000
  O2     O2        0.746981301691930    0.693780656040416    0.049274519148542  0.0000
  O2     O2        0.242904952654963    0.254095661509273    0.921016472755136  0.0000
  O2     O2        0.264720626843660    0.687046402981048    0.916418974312647  0.0000
