data_c00481.vasp
_audit_creation_method             Generated by GULP
_audit_author_name                 Salvador R. G. Balestra
_symmetry_space_group_name_H-M     'P 1             '
_symmetry_Int_Tables_number        1

loop_
_symmetry_equiv_pos_site_id
_symmetry_equiv_pos_as_xyz
_cell_length_a                       17.0913
_cell_length_b                        7.6407
_cell_length_c                       10.2660
_cell_angle_alpha                   89.7864
_cell_angle_beta                    90.1116
_cell_angle_gamma                   89.6087

loop_
_atom_site_label
_atom_site_type_symbol
_atom_site_fract_x
_atom_site_fract_y
_atom_site_fract_z
_atom_site_charge
  Ge     Ge        0.052090000000021    0.000000000000000    0.372269999999958  0.0000
  Ge     Ge        0.051576673894909    0.994101865992311    0.881949174612174  0.0000
  Ge     Ge        0.828131258047796    0.692368998211274    0.042109810806611  0.0000
  Ge     Ge        0.326542988205260    0.262547215647534    0.979797568634959  0.0000
  Si     Si        0.451631527743396    0.975542814220205    0.378320297162954  0.0000
  Si     Si        0.947817299518127    0.986862299412373    0.628322490665438  0.0000
  Si     Si        0.550884586767604    0.978096152789160    0.638212906699131  0.0000
  Si     Si        0.548798378867500    0.984386828536740    0.120959570623563  0.0000
  Si     Si        0.940915207024136    0.976011382417554    0.121198035297787  0.0000
  Si     Si        0.438239376273797    0.979045261705050    0.883031710322579  0.0000
  Si     Si        0.156649333862863    0.310012002478647    0.299351996822734  0.0000
  Si     Si        0.352398899927744    0.667928798818757    0.286758834232776  0.0000
  Si     Si        0.843275234573505    0.289685488697301    0.730648563529201  0.0000
  Si     Si        0.656484041301469    0.671891476684084    0.721428714646649  0.0000
  Si     Si        0.834874525289616    0.695082490001558    0.731172433065716  0.0000
  Si     Si        0.662740686731333    0.271152949148383    0.722689311066682  0.0000
  Si     Si        0.171769705048695    0.712141215860059    0.295458684213827  0.0000
  Si     Si        0.335626076295885    0.265462510690171    0.290362490145692  0.0000
  Si     Si        0.660314168452005    0.270856445499903    0.026201066256943  0.0000
  Si     Si        0.167651267370925    0.710073659319107    0.994428357453476  0.0000
  Si     Si        0.350245556825139    0.662126573620628    0.985014722211127  0.0000
  Si     Si        0.144107593403548    0.312328478179584    0.995237361069251  0.0000
  Si     Si        0.646088028216467    0.667334663509007    0.028343369628735  0.0000
  Si     Si        0.842784940563518    0.289805557295961    0.033184100051386  0.0000
  O3     O3        0.097654682802688    0.200386686062109    0.386429819669155  0.0000
  O2     O2        0.410447447091600    0.786102802084389    0.371726988080044  0.0000
  O2     O2        0.901285992581357    0.170205749732717    0.647014328288279  0.0000
  O2     O2        0.598764620817986    0.795831955245436    0.639087820672957  0.0000
  O2     O2        0.890983308407294    0.822009836004143    0.650183149819297  0.0000
  O2     O2        0.611516974311535    0.139210687992882    0.637473896206063  0.0000
  O3     O3        0.124107133855751    0.840268530641269    0.387335800931484  0.0000
  O2     O2        0.387061687124540    0.130104317766093    0.375214520038047  0.0000
  O3     O3        0.977861662323054    0.978303191310225    0.481959096437327  0.0000
  O2     O2        0.497833198857409    0.988874766372147    0.511955868107144  0.0000
  O3     O3        0.010740410183009    0.976905991337399    0.220987536664425  0.0000
  O2     O2        0.513994941610150    0.998224419307901    0.263846964398274  0.0000
  O3     O3        0.023006329865636    0.981917996925484    0.721536898849425  0.0000
  O2     O2        0.494959135098020    0.989880819156836    0.761758062661720  0.0000
  O2     O2        0.618090068375049    0.125696843387507    0.112708941801048  0.0000
  O3     O3        0.877285613551167    0.827027127572242    0.146599969512398  0.0000
  O3     O3        0.367935385104935    0.116012317682037    0.873331768261228  0.0000
  O3     O3        0.129744568970080    0.851508152992183    0.900700746222245  0.0000
  O2     O2        0.403297354821318    0.783896206244973    0.893781755216872  0.0000
  O3     O3        0.078631618396094    0.206020575491511    0.919909499327016  0.0000
  O2     O2        0.581356413385485    0.788348923760735    0.097014228385760  0.0000
  O2     O2        0.895330574594262    0.162648152348029    0.121684031515802  0.0000
  O2     O2        0.483749423693122    0.034963659023256    0.014470750533371  0.0000
  O3     O3        0.975558820331494    0.931191204527525    0.979117614922474  0.0000
  O2     O2        0.140861097866792    0.515588017755586    0.319150948670055  0.0000
  O2     O2        0.368629641011294    0.462058772862702    0.310403498913184  0.0000
  O2     O2        0.863189513061940    0.494119896313577    0.710532932906297  0.0000
  O2     O2        0.635747304623246    0.470012515868222    0.692222848757777  0.0000
  O2     O2        0.245789901049673    0.260855962486061    0.338738125475990  0.0000
  O2     O2        0.264021658763173    0.717445272450460    0.326859312037085  0.0000
  O2     O2        0.754288612093186    0.250099134203803    0.687855112561809  0.0000
  O2     O2        0.745524073368879    0.712296837766145    0.679772182805205  0.0000
  O2     O2        0.142993268412760    0.259041833796800    0.148167003970998  0.0000
  O2     O2        0.367229079214505    0.712411469117862    0.135337448604822  0.0000
  O2     O2        0.856597937279216    0.240208736436243    0.881797373423657  0.0000
  O2     O2        0.646893039584487    0.710552430516905    0.874462275670781  0.0000
  O3     O3        0.837360553152338    0.749947602596804    0.880432432825896  0.0000
  O2     O2        0.650663253052186    0.224153753642747    0.874251583026446  0.0000
  O2     O2        0.158145252685619    0.770139644301242    0.144862171426281  0.0000
  O3     O3        0.338474209982739    0.207024495197847    0.141435442234730  0.0000
  O2     O2        0.624099983124880    0.463624659845195    0.052390954365580  0.0000
  O3     O3        0.867066816443100    0.485239749668955    0.062311339871563  0.0000
  O3     O3        0.370269287672939    0.463568027184502    0.955898260823775  0.0000
  O2     O2        0.127557066098711    0.520092930547335    0.977984656886235  0.0000
  O2     O2        0.751123219974286    0.268549106892931    0.065994615325610  0.0000
  O3     O3        0.730978854852022    0.702546064246114    0.085934842385904  0.0000
  O3     O3        0.228996756014353    0.265799334490317    0.939067575776804  0.0000
  O2     O2        0.258542767485184    0.693335697580929    0.956963318960878  0.0000
