data_c00457.vasp
_audit_creation_method             Generated by GULP
_audit_author_name                 Salvador R. G. Balestra
_symmetry_space_group_name_H-M     'P 1             '
_symmetry_Int_Tables_number        1

loop_
_symmetry_equiv_pos_site_id
_symmetry_equiv_pos_as_xyz
_cell_length_a                       17.2356
_cell_length_b                        7.6473
_cell_length_c                       10.1932
_cell_angle_alpha                   89.6139
_cell_angle_beta                    90.3120
_cell_angle_gamma                   90.2103

loop_
_atom_site_label
_atom_site_type_symbol
_atom_site_fract_x
_atom_site_fract_y
_atom_site_fract_z
_atom_site_charge
  Ge     Ge        0.052090000000021    0.000000000000000    0.372269999999958  0.0000
  Ge     Ge        0.058553472114456    0.002520659782006    0.890794135681505  0.0000
  Ge     Ge        0.846033352379467    0.322451941028707    0.696821183316022  0.0000
  Ge     Ge        0.671278996970811    0.284477702768334    0.019302554179822  0.0000
  Si     Si        0.451216281327907    0.990042903291573    0.357960677074876  0.0000
  Si     Si        0.951642024684291    0.013985172430570    0.632263969468975  0.0000
  Si     Si        0.550835075804994    0.999081626498104    0.617343006798766  0.0000
  Si     Si        0.560666807384214    0.995349607478447    0.110311051338441  0.0000
  Si     Si        0.944253306433664    0.003890713936477    0.126797403603642  0.0000
  Si     Si        0.450175121674227    0.002234560241036    0.869680046608077  0.0000
  Si     Si        0.160692040726533    0.303010987788299    0.268003389519051  0.0000
  Si     Si        0.347681500712881    0.685508302622840    0.279519493232660  0.0000
  Si     Si        0.655521420011242    0.696595775920357    0.712745879100507  0.0000
  Si     Si        0.834771244593995    0.728400022427881    0.706393928638009  0.0000
  Si     Si        0.665907203514424    0.291238492309641    0.705340076397364  0.0000
  Si     Si        0.169540908250901    0.710532177408810    0.267721085475149  0.0000
  Si     Si        0.339834980415794    0.284861378752647    0.275716005252728  0.0000
  Si     Si        0.836007707673346    0.714231442505246    0.013514851927247  0.0000
  Si     Si        0.341551088988373    0.291677591058617    0.968930292357756  0.0000
  Si     Si        0.174785349815214    0.715242657065550    0.964411635127209  0.0000
  Si     Si        0.353381129920199    0.688710634533605    0.972311180436466  0.0000
  Si     Si        0.162009419014976    0.313198807447281    0.965510699489611  0.0000
  Si     Si        0.655686418220213    0.686115270223568    0.016558130399261  0.0000
  Si     Si        0.851441461670873    0.317284512450654    0.013391362004594  0.0000
  O3     O3        0.102610619889671    0.194111667234834    0.356427032392176  0.0000
  O2     O2        0.403618434074318    0.807963459171520    0.366049073432985  0.0000
  O3     O3        0.912917086261505    0.202856059032356    0.611194993475121  0.0000
  O2     O2        0.598460706940529    0.818327115990998    0.628138833707065  0.0000
  O2     O2        0.880492176295849    0.874156755805672    0.623159295903338  0.0000
  O2     O2        0.607679880167054    0.165648181345948    0.626134511498559  0.0000
  O3     O3        0.114272035814305    0.826531679683836    0.354062470050725  0.0000
  O2     O2        0.391041524214549    0.151174893250667    0.361002628031258  0.0000
  O3     O3        0.019671920889460    0.982475482477567    0.531509110838494  0.0000
  O2     O2        0.510515817528098    0.004178863376612    0.476729550329766  0.0000
  O3     O3        0.969190954148443    0.996715021710563    0.277497630225065  0.0000
  O2     O2        0.499732313676454    0.997350278732249    0.225468559805632  0.0000
  O3     O3        0.986490291629386    0.993018915373859    0.777694621089143  0.0000
  O2     O2        0.483371680591538    0.007991168346819    0.724333409516993  0.0000
  O3     O3        0.624962471137469    0.143840851354021    0.124533770703611  0.0000
  O2     O2        0.878107456656342    0.857746455031990    0.102123416840041  0.0000
  O2     O2        0.386652917180686    0.154628993059479    0.880409811925248  0.0000
  O3     O3        0.127678026136732    0.840986566144190    0.870203705674328  0.0000
  O2     O2        0.412230932055115    0.812034388471001    0.893717732259353  0.0000
  O3     O3        0.105319550656290    0.202754521879661    0.875672507332676  0.0000
  O2     O2        0.602871589783842    0.807641097658944    0.106780661364324  0.0000
  O2     O2        0.914258724557126    0.198116499373182    0.089057476302350  0.0000
  O2     O2        0.518655821417545    0.040210465296582    0.972337215953570  0.0000
  O3     O3        0.019826203276931    0.962747788723198    0.043339893153193  0.0000
  O2     O2        0.144854995337852    0.508441348456580    0.285015064329191  0.0000
  O2     O2        0.365123856662768    0.482607126328574    0.311508013681487  0.0000
  O3     O3        0.867942631674673    0.540124941462559    0.672038929656454  0.0000
  O2     O2        0.636211898010982    0.492151358684108    0.692803329400827  0.0000
  O2     O2        0.249320001298214    0.257488411502402    0.308579549288151  0.0000
  O2     O2        0.258974608930312    0.731498698609199    0.313453303172883  0.0000
  O3     O3        0.751780041603576    0.280796633799473    0.647141978281591  0.0000
  O2     O2        0.743666392977144    0.735267509152714    0.668767192049056  0.0000
  O2     O2        0.146608829113659    0.251144115814054    0.115915181161471  0.0000
  O2     O2        0.363687836082679    0.724579921792645    0.126598097805085  0.0000
  O3     O3        0.853995714041293    0.270678788690451    0.861025053820936  0.0000
  O2     O2        0.644552018022932    0.745114593351591    0.865048182228478  0.0000
  O2     O2        0.844090132381339    0.767020146299157    0.861329817584022  0.0000
  O3     O3        0.668091266483993    0.229629649297751    0.855969366179480  0.0000
  O2     O2        0.162471008885601    0.771104511987413    0.115940350145171  0.0000
  O2     O2        0.353757903652866    0.247357401052967    0.122256184212459  0.0000
  O3     O3        0.630601799647065    0.488726888945949    0.038287708859651  0.0000
  O2     O2        0.873671013951022    0.522489743292211    0.034834102247308  0.0000
  O2     O2        0.373236370501033    0.487377605035380    0.939914441806881  0.0000
  O2     O2        0.144323555477838    0.517468077172843    0.945923517979005  0.0000
  O3     O3        0.766754761493293    0.283338922433886    0.069983903701483  0.0000
  O2     O2        0.746213248276953    0.708162776124974    0.055041576713628  0.0000
  O2     O2        0.251453538980717    0.276695058148956    0.930541713601324  0.0000
  O2     O2        0.265563080581786    0.729127879375176    0.928778386347581  0.0000
