data_c00523.vasp
_audit_creation_method             Generated by GULP
_audit_author_name                 Salvador R. G. Balestra
_symmetry_space_group_name_H-M     'P 1             '
_symmetry_Int_Tables_number        1

loop_
_symmetry_equiv_pos_site_id
_symmetry_equiv_pos_as_xyz
_cell_length_a                       17.2028
_cell_length_b                        7.6429
_cell_length_c                       10.2475
_cell_angle_alpha                   90.9919
_cell_angle_beta                    90.5378
_cell_angle_gamma                   89.5289

loop_
_atom_site_label
_atom_site_type_symbol
_atom_site_fract_x
_atom_site_fract_y
_atom_site_fract_z
_atom_site_charge
  Ge     Ge        0.052090000000021    0.000000000000000    0.372269999999958  0.0000
  Ge     Ge        0.157886282198934    0.314027863225390    0.295834286951673  0.0000
  Ge     Ge        0.660535088483902    0.659400935801514    0.713880223406743  0.0000
  Ge     Ge        0.334540939295570    0.262827876211625    0.975109232104610  0.0000
  Si     Si        0.455249165431403    0.980707032261406    0.376292954849983  0.0000
  Si     Si        0.954358872477251    0.967011179160915    0.633615555810432  0.0000
  Si     Si        0.553368314166986    0.961427654375640    0.634574373048007  0.0000
  Si     Si        0.557991994976836    0.982981773924312    0.127100466205630  0.0000
  Si     Si        0.946477121109012    0.975211342672535    0.110757776495860  0.0000
  Si     Si        0.446567869281846    0.971020487613252    0.885063545906460  0.0000
  Si     Si        0.059979653427763    0.988017544136089    0.877412765616253  0.0000
  Si     Si        0.354232850219181    0.673051682369220    0.280785938400582  0.0000
  Si     Si        0.847466987329466    0.271235935247274    0.730484607661452  0.0000
  Si     Si        0.841696024781199    0.672764412833796    0.724994526574014  0.0000
  Si     Si        0.667622693206952    0.250331852797879    0.724792587890728  0.0000
  Si     Si        0.174787842362113    0.719779199882215    0.288631699764473  0.0000
  Si     Si        0.338977237428953    0.270605173987055    0.287235201522380  0.0000
  Si     Si        0.666717329357615    0.269381232054610    0.029218159116985  0.0000
  Si     Si        0.834524347101976    0.682438405358805    0.032824079854473  0.0000
  Si     Si        0.170298478879265    0.701104761125504    0.984988908130404  0.0000
  Si     Si        0.350802017111973    0.664729347084982    0.978425827023571  0.0000
  Si     Si        0.153696905325921    0.301263701535644    0.983605574528204  0.0000
  Si     Si        0.656359548729481    0.670504339577453    0.025339312440597  0.0000
  Si     Si        0.846296537108215    0.286215934015551    0.035146199378313  0.0000
  O1     O1        0.089984446550721    0.205078323200054    0.382869681725951  0.0000
  O2     O2        0.412113647695545    0.794020925245583    0.365560389059114  0.0000
  O2     O2        0.903355967272326    0.143551570513106    0.649153116607218  0.0000
  O3     O3        0.596779248413869    0.777321086023300    0.619165558918468  0.0000
  O2     O2        0.902587727507297    0.796637913465023    0.656356064875667  0.0000
  O2     O2        0.620266094303538    0.108178038341217    0.641060427921066  0.0000
  O3     O3        0.133691613115105    0.865068178632717    0.375867378992377  0.0000
  O2     O2        0.394275812853747    0.139947108926250    0.367095307724634  0.0000
  O3     O3        0.984950106998772    0.955994644436583    0.488461283195848  0.0000
  O2     O2        0.494843271200659    0.997155440242972    0.517031317492888  0.0000
  O3     O3        0.006814426804534    0.956504845261924    0.225029486707204  0.0000
  O2     O2        0.522278411188825    0.993906250592952    0.269826559008638  0.0000
  O2     O2        0.029246652635951    0.973101045364347    0.729288801576466  0.0000
  O2     O2        0.505158159510850    0.967695103617154    0.767174740799539  0.0000
  O2     O2        0.619949971284032    0.139039995441968    0.119078254424960  0.0000
  O2     O2        0.882720636500471    0.822153912252098    0.117107766398136  0.0000
  O3     O3        0.382012534860596    0.120396381306480    0.872025271247144  0.0000
  O2     O2        0.126842958215802    0.840884246323136    0.894675836905357  0.0000
  O2     O2        0.404003592926175    0.784115336675731    0.889308023070859  0.0000
  O2     O2        0.092455041733969    0.183306259656785    0.901563916574468  0.0000
  O2     O2        0.598705281271583    0.793617834947671    0.108932886638771  0.0000
  O2     O2        0.902292782074640    0.163715005212365    0.121179271567565  0.0000
  O2     O2        0.491093962210062    0.015486166194472    0.020455360406411  0.0000
  O2     O2        0.989253920150947    0.951243609594153    0.972844953772653  0.0000
  O3     O3        0.137767543970474    0.532970954212300    0.315580361671496  0.0000
  O2     O2        0.373059723821078    0.468165370813919    0.300048351239754  0.0000
  O2     O2        0.868057349680463    0.471322695646410    0.699189103724924  0.0000
  O3     O3        0.638296008596120    0.442079417666220    0.691011600861669  0.0000
  O3     O3        0.252705787560534    0.268413990912868    0.343580713255721  0.0000
  O2     O2        0.266246883882431    0.711795912399665    0.324620722335844  0.0000
  O2     O2        0.758652521059078    0.232617787193484    0.689552741215679  0.0000
  O3     O3        0.755394569706395    0.699130153166198    0.669689134264130  0.0000
  O3     O3        0.148736400886795    0.249298792588484    0.133706173113773  0.0000
  O2     O2        0.364425126811559    0.721283303767157    0.129571440860944  0.0000
  O2     O2        0.859521232044036    0.236408455672015    0.883680730858428  0.0000
  O3     O3        0.647044936785096    0.719207837088456    0.875364037447525  0.0000
  O2     O2        0.839804414778008    0.716338165815844    0.879092123615810  0.0000
  O2     O2        0.656755052415733    0.213003455287340    0.878141247603391  0.0000
  O2     O2        0.164543192648438    0.764549392955231    0.135152962196791  0.0000
  O3     O3        0.337592783515273    0.208075148364593    0.137115761294583  0.0000
  O2     O2        0.634710629548422    0.467568150781109    0.048021551125072  0.0000
  O2     O2        0.867425684786383    0.488438527590012    0.064327066777012  0.0000
  O3     O3        0.374921795669389    0.466474581143907    0.954509909012519  0.0000
  O2     O2        0.132802125901000    0.508292816843285    0.968372132560882  0.0000
  O2     O2        0.756774718378066    0.255887511541311    0.071631291167775  0.0000
  O2     O2        0.744807123627913    0.700553308892599    0.073906910739274  0.0000
  O3     O3        0.238473648759839    0.266078185547890    0.927159360635160  0.0000
  O2     O2        0.259992838997651    0.692370952304623    0.941846513673367  0.0000
