data_c00581.vasp
_audit_creation_method             Generated by GULP
_audit_author_name                 Salvador R. G. Balestra
_symmetry_space_group_name_H-M     'P 1             '
_symmetry_Int_Tables_number        1

loop_
_symmetry_equiv_pos_site_id
_symmetry_equiv_pos_as_xyz
_cell_length_a                       17.1396
_cell_length_b                        7.6096
_cell_length_c                       10.3067
_cell_angle_alpha                   90.8301
_cell_angle_beta                    90.9290
_cell_angle_gamma                   89.7888

loop_
_atom_site_label
_atom_site_type_symbol
_atom_site_fract_x
_atom_site_fract_y
_atom_site_fract_z
_atom_site_charge
  Ge     Ge        0.052090000000021    0.000000000000000    0.372269999999958  0.0000
  Ge     Ge        0.156573055336304    0.313083862081331    0.286109346346164  0.0000
  Ge     Ge        0.171136615638828    0.715288158517721    0.978450060098349  0.0000
  Ge     Ge        0.855311310667489    0.315343675350951    0.031102361599082  0.0000
  Si     Si        0.456882119651831    0.986041664492714    0.372438721790344  0.0000
  Si     Si        0.945236683907923    0.993524248193626    0.623329539704726  0.0000
  Si     Si        0.548237689137140    0.983703715152593    0.641446279750933  0.0000
  Si     Si        0.561009923293211    0.996855818058433    0.125259091234464  0.0000
  Si     Si        0.953845352236366    0.996796789003597    0.107889402837573  0.0000
  Si     Si        0.444154601833848    0.980941049185338    0.889708803556324  0.0000
  Si     Si        0.059382781406555    0.997465504002032    0.864194248152040  0.0000
  Si     Si        0.354042932350258    0.675597666016988    0.281438640306319  0.0000
  Si     Si        0.844195642287764    0.299059860398732    0.721457581008442  0.0000
  Si     Si        0.653625466884762    0.678774548666422    0.725895213861894  0.0000
  Si     Si        0.832248116559246    0.703047480286122    0.721534332622537  0.0000
  Si     Si        0.665061817096201    0.275022404105480    0.730856317493550  0.0000
  Si     Si        0.174832506390192    0.727044659396133    0.283507548158397  0.0000
  Si     Si        0.339200679654517    0.275239505137076    0.286889416371783  0.0000
  Si     Si        0.671817209482231    0.284056292812510    0.034996767039810  0.0000
  Si     Si        0.835648387433410    0.718341065049473    0.026434470103142  0.0000
  Si     Si        0.332561815458839    0.269073728649755    0.982194302485242  0.0000
  Si     Si        0.353032049294943    0.663361733477452    0.977166962237822  0.0000
  Si     Si        0.151600595304681    0.306394492390423    0.982237401716965  0.0000
  Si     Si        0.656395991059502    0.681859516470127    0.028536673732415  0.0000
  O1     O1        0.090777502965128    0.206183697168566    0.379106544401095  0.0000
  O2     O2        0.414491780915328    0.797763762837243    0.360740728853670  0.0000
  O2     O2        0.899635931892111    0.179030982974227    0.632059186565110  0.0000
  O2     O2        0.592784041418759    0.796490667816544    0.645235468871747  0.0000
  O2     O2        0.885006898003736    0.834436272550102    0.642027506761193  0.0000
  O2     O2        0.611207795045397    0.139803081284359    0.651065845034397  0.0000
  O3     O3        0.131149166034586    0.857390670873707    0.380267782890378  0.0000
  O2     O2        0.392872265712465    0.140571351999083    0.365966660365565  0.0000
  O3     O3        0.980917293990370    0.969587305448074    0.483620505184591  0.0000
  O2     O2        0.501567709668427    0.998657447807128    0.508149850313260  0.0000
  O3     O3        0.007508237670379    0.945685223212765    0.225999465394960  0.0000
  O2     O2        0.519769204961384    0.010062154354721    0.261708210456971  0.0000
  O2     O2        0.017716935217059    0.990419550425423    0.724411482497658  0.0000
  O2     O2        0.486251774106440    0.003296570202881    0.754903090406345  0.0000
  O2     O2        0.625897082331465    0.148222844753466    0.122258605002657  0.0000
  O2     O2        0.875326382065971    0.878812773891940    0.103770184681528  0.0000
  O2     O2        0.371595403826730    0.116661401935351    0.895817049252722  0.0000
  O3     O3        0.126396041081697    0.851756618040504    0.869138740080547  0.0000
  O2     O2        0.414203972149926    0.780654447714632    0.899497457670394  0.0000
  O2     O2        0.096321578016779    0.191002491097043    0.886475119172438  0.0000
  O2     O2        0.600278280870465    0.804758397818625    0.112900453656730  0.0000
  O3     O3        0.924602748943882    0.197642282320059    0.116201272294812  0.0000
  O2     O2        0.500907083192110    0.032123439285246    0.008545258046012  0.0000
  O2     O2        0.998548033819705    0.952098634763005    0.975301792260618  0.0000
  O3     O3        0.138241989853562    0.534275368128975    0.292507312516175  0.0000
  O2     O2        0.373039823901199    0.471993467857200    0.309256308575149  0.0000
  O2     O2        0.861283780279173    0.503910236027516    0.694376822187228  0.0000
  O2     O2        0.635282668165836    0.472939188359851    0.703303760406543  0.0000
  O3     O3        0.251345905052361    0.266517615495319    0.335184787182634  0.0000
  O2     O2        0.266159474561558    0.716853747075110    0.325184959559316  0.0000
  O2     O2        0.754211902099353    0.255553369610654    0.685461785660112  0.0000
  O2     O2        0.741291918793392    0.721248089951521    0.679961242211655  0.0000
  O3     O3        0.140895491847184    0.239193519486714    0.127641409698760  0.0000
  O2     O2        0.360715972124199    0.715120143443920    0.129191923610002  0.0000
  O3     O3        0.863345879743884    0.255860738990478    0.869641312288230  0.0000
  O2     O2        0.644164457325118    0.728182807479354    0.877449341160161  0.0000
  O2     O2        0.840503997537774    0.749595500993907    0.872808329440595  0.0000
  O2     O2        0.663433042666448    0.231497120451178    0.883078216061405  0.0000
  O3     O3        0.167777670843781    0.794140669212813    0.135946641733583  0.0000
  O2     O2        0.339263448220205    0.224114704342048    0.134153683856681  0.0000
  O2     O2        0.635942348607007    0.479566654180895    0.055561156622462  0.0000
  O3     O3        0.876352983361175    0.534425866733492    0.058180381885116  0.0000
  O2     O2        0.373202497934265    0.456769851139537    0.955435789000790  0.0000
  O3     O3        0.128848946087702    0.508915560496964    0.971359358075687  0.0000
  O3     O3        0.761167545028411    0.278581097195637    0.079104131103371  0.0000
  O2     O2        0.745974779533270    0.714661992065159    0.069622365288883  0.0000
  O2     O2        0.241851385840930    0.280942834975060    0.941754872602881  0.0000
  O3     O3        0.266320690229375    0.700786819948911    0.928261933844195  0.0000
