data_c00592.vasp
_audit_creation_method             Generated by GULP
_audit_author_name                 Salvador R. G. Balestra
_symmetry_space_group_name_H-M     'P 1             '
_symmetry_Int_Tables_number        1

loop_
_symmetry_equiv_pos_site_id
_symmetry_equiv_pos_as_xyz
_cell_length_a                       17.2538
_cell_length_b                        7.6555
_cell_length_c                       10.2031
_cell_angle_alpha                   89.4627
_cell_angle_beta                    90.1750
_cell_angle_gamma                   90.0493

loop_
_atom_site_label
_atom_site_type_symbol
_atom_site_fract_x
_atom_site_fract_y
_atom_site_fract_z
_atom_site_charge
  Ge     Ge        0.052090000000021    0.000000000000000    0.372269999999958  0.0000
  Ge     Ge        0.338872011199371    0.727606019642716    0.273516392778431  0.0000
  Ge     Ge        0.837691816127881    0.317020409821908    0.706995481590649  0.0000
  Ge     Ge        0.653839222145326    0.341422451036395    0.022368505237903  0.0000
  Si     Si        0.454505207833230    0.014228992035669    0.354988748354731  0.0000
  Si     Si        0.954102189897729    0.023347858535501    0.635993131391608  0.0000
  Si     Si        0.551867476589288    0.032360100409239    0.613822444936111  0.0000
  Si     Si        0.553500411398271    0.026766105454876    0.099966363471750  0.0000
  Si     Si        0.941983127030601    0.019450817331293    0.127061520149503  0.0000
  Si     Si        0.442105832007746    0.024300698664348    0.855801393045343  0.0000
  Si     Si        0.056171426136237    0.015842600968540    0.892141610676651  0.0000
  Si     Si        0.170761324231390    0.291360580925036    0.268000215718802  0.0000
  Si     Si        0.664433747462876    0.738245819083286    0.709203088096310  0.0000
  Si     Si        0.843321919156728    0.725926559407868    0.708698880115073  0.0000
  Si     Si        0.657043577061730    0.334143975333235    0.707436526855068  0.0000
  Si     Si        0.157685780772850    0.695102913409049    0.274754307419345  0.0000
  Si     Si        0.349846872542755    0.317883433327710    0.264453052344437  0.0000
  Si     Si        0.844454533329932    0.714621697803624    0.014052075077879  0.0000
  Si     Si        0.346047430459058    0.331567714886376    0.958789678716520  0.0000
  Si     Si        0.157163512206680    0.704639868461338    0.967406069551496  0.0000
  Si     Si        0.335846666741110    0.732332917629886    0.961003045857904  0.0000
  Si     Si        0.167020238832899    0.307068662988114    0.963008545385214  0.0000
  Si     Si        0.665744194651176    0.742543920734056    0.015645441453762  0.0000
  Si     Si        0.834632223193736    0.314966383668036    0.020581282147800  0.0000
  O3     O3        0.121654934119476    0.159513554354972    0.353405079784065  0.0000
  O3     O3        0.394530428403864    0.857247847590809    0.372821165907427  0.0000
  O3     O3        0.900130149495755    0.191984486753308    0.617804456711956  0.0000
  O2     O2        0.611549514665645    0.871409681883819    0.626972920990627  0.0000
  O2     O2        0.897545875570689    0.855366682497204    0.625538031249657  0.0000
  O2     O2        0.595570153885749    0.216462894293754    0.628868741619226  0.0000
  O3     O3        0.093772047891822    0.797508947921585    0.354225315267615  0.0000
  O2     O2        0.406863537461698    0.194582282806471    0.346999341095811  0.0000
  O3     O3        0.021235978104821    0.015231651234477    0.531565215527345  0.0000
  O2     O2        0.517080139563070    0.025823214337287    0.469158498587811  0.0000
  O3     O3        0.971678209211674    0.024276701767650    0.274353912884213  0.0000
  O2     O2        0.499584328171757    0.977131330620776    0.220557067040874  0.0000
  O2     O2        0.993000798385771    0.030749738260926    0.779521456488893  0.0000
  O2     O2        0.480833578958418    0.015049154686106    0.714245319479889  0.0000
  O3     O3        0.587583427581647    0.220107889265431    0.109965245084816  0.0000
  O2     O2        0.898307773089916    0.836225067531194    0.102435818134518  0.0000
  O2     O2        0.400071511209113    0.212054487327616    0.868921852073208  0.0000
  O2     O2        0.100002682473141    0.829519545987492    0.884695088475153  0.0000
  O2     O2        0.380728115898877    0.866353638839774    0.866225374048201  0.0000
  O2     O2        0.117987877863937    0.173526211722138    0.875341325363028  0.0000
  O2     O2        0.626289208665234    0.894408624952780    0.098428883172323  0.0000
  O2     O2        0.885939350188874    0.184440091681937    0.107853346731320  0.0000
  O2     O2        0.507433285676151    0.000644427551335    0.965195009294258  0.0000
  O2     O2        0.015981276545998    0.035567294173147    0.032684157216280  0.0000
  O2     O2        0.144472559785899    0.488819043050541    0.296681104864585  0.0000
  O3     O3        0.369158978094485    0.515212302103013    0.296047447710460  0.0000
  O3     O3        0.867579031290163    0.529768898906278    0.682707020147451  0.0000
  O2     O2        0.636600540499418    0.539588817580570    0.686414505367927  0.0000
  O2     O2        0.261511394720791    0.271528928419861    0.303017501445176  0.0000
  O3     O3        0.243419861864361    0.747667587385980    0.319829208884053  0.0000
  O3     O3        0.742679572551581    0.297937492439612    0.654961128016916  0.0000
  O2     O2        0.753913901080979    0.757660482567402    0.665490331736246  0.0000
  O2     O2        0.158355015139566    0.250795395256866    0.114511427852919  0.0000
  O3     O3        0.348176040145302    0.786060522777138    0.110348240671491  0.0000
  O3     O3        0.838120742606054    0.257912207573141    0.870338029471371  0.0000
  O2     O2        0.657926720056191    0.785967022127009    0.861454293258929  0.0000
  O2     O2        0.853327584355376    0.770182208714938    0.862527747023611  0.0000
  O3     O3        0.650466556907185    0.284769651864125    0.859680310045555  0.0000
  O2     O2        0.148976334135458    0.745282520901382    0.120890413351247  0.0000
  O2     O2        0.361610019844981    0.280318828299937    0.109890095847692  0.0000
  O3     O3        0.627815064416962    0.556465248296175    0.045285146704764  0.0000
  O2     O2        0.868764130764375    0.512481607609037    0.033002290197168  0.0000
  O2     O2        0.367014297211029    0.535292950104152    0.936872621921020  0.0000
  O2     O2        0.135121512838181    0.503362558766590    0.938855343323031  0.0000
  O3     O3        0.747875562611320    0.309422917339314    0.074385746816796  0.0000
  O2     O2        0.755692655069544    0.737035418568777    0.057774525665961  0.0000
  O2     O2        0.256692057548634    0.297345507904903    0.921171762165845  0.0000
  O2     O2        0.245133865543039    0.741111053904255    0.923761766148709  0.0000
