data_c00501.vasp
_audit_creation_method             Generated by GULP
_audit_author_name                 Salvador R. G. Balestra
_symmetry_space_group_name_H-M     'P 1             '
_symmetry_Int_Tables_number        1

loop_
_symmetry_equiv_pos_site_id
_symmetry_equiv_pos_as_xyz
_cell_length_a                       17.3102
_cell_length_b                        7.6302
_cell_length_c                       10.1757
_cell_angle_alpha                   90.3204
_cell_angle_beta                    90.0458
_cell_angle_gamma                   89.9342

loop_
_atom_site_label
_atom_site_type_symbol
_atom_site_fract_x
_atom_site_fract_y
_atom_site_fract_z
_atom_site_charge
  Ge     Ge        0.052090000000021    0.000000000000000    0.372269999999958  0.0000
  Ge     Ge        0.176650691923225    0.289165280875312    0.277794311770594  0.0000
  Ge     Ge        0.338944533750500    0.749984372314485    0.268672896083414  0.0000
  Ge     Ge        0.172721146285931    0.286882455197746    0.959211925620733  0.0000
  Si     Si        0.459590175750079    0.032491042052609    0.350787271644456  0.0000
  Si     Si        0.951955180520197    0.002092434611549    0.637285520031126  0.0000
  Si     Si        0.556611431297666    0.015892847585363    0.609692081077569  0.0000
  Si     Si        0.560014515464426    0.011905481082900    0.094257508033676  0.0000
  Si     Si        0.944992697766030    0.017576341029051    0.125059841764354  0.0000
  Si     Si        0.448856581157147    0.025329247690346    0.853603970342320  0.0000
  Si     Si        0.057113608643337    0.997482710894668    0.889076811513351  0.0000
  Si     Si        0.841918236398356    0.304392172487165    0.707559841859029  0.0000
  Si     Si        0.665026771740842    0.716816795237371    0.707720852619055  0.0000
  Si     Si        0.842631522952417    0.706609236988406    0.706007113005613  0.0000
  Si     Si        0.663845521052932    0.313798392757884    0.707446374100633  0.0000
  Si     Si        0.162108531508680    0.693341009103827    0.270294831192668  0.0000
  Si     Si        0.356735232874055    0.336846372564955    0.270270449824084  0.0000
  Si     Si        0.661232182347039    0.319995118983793    0.014319219574545  0.0000
  Si     Si        0.846190777438168    0.709386051507971    0.013870631661386  0.0000
  Si     Si        0.354788023786068    0.336560303103004    0.962096343411682  0.0000
  Si     Si        0.162928363804456    0.684906897086079    0.956597377337971  0.0000
  Si     Si        0.338399703119330    0.739782020590246    0.954452159299141  0.0000
  Si     Si        0.668265355858920    0.718211145305313    0.015242212562754  0.0000
  Si     Si        0.839532967080423    0.310660342397186    0.014843667762732  0.0000
  O1     O1        0.121357524784927    0.157281209566198    0.374153829326401  0.0000
  O3     O3        0.394102287668263    0.886201527193534    0.364716517862247  0.0000
  O2     O2        0.898012234299697    0.175769227187502    0.626394696969878  0.0000
  O2     O2        0.609128622343981    0.842913570896981    0.626180533685265  0.0000
  O2     O2        0.897158772600188    0.831523795000790    0.620894682598151  0.0000
  O2     O2        0.608804999039147    0.188710295530406    0.623804706884144  0.0000
  O3     O3        0.090923919646554    0.800997654700033    0.325789918009097  0.0000
  O2     O2        0.420236141322149    0.224660744484575    0.350142932748930  0.0000
  O3     O3        0.017736302783766    0.996250030356655    0.530926202700097  0.0000
  O2     O2        0.522530604133210    0.017303637366211    0.464339684365715  0.0000
  O3     O3        0.972815894914937    0.033881100184016    0.272674871289711  0.0000
  O2     O2        0.501909601379944    0.997008412552186    0.213371638215105  0.0000
  O2     O2        0.991775772978722    0.997335904294078    0.779629910945665  0.0000
  O2     O2        0.484742255053147    0.017969122710266    0.708999165058116  0.0000
  O2     O2        0.605985481394846    0.196135084124006    0.099167793329822  0.0000
  O2     O2        0.901845823865920    0.833445750128551    0.097881835272024  0.0000
  O2     O2        0.414079921760465    0.219054539586331    0.877547877373821  0.0000
  O2     O2        0.098195660887611    0.808223115100477    0.894670274107797  0.0000
  O2     O2        0.383984039793207    0.874155769117169    0.861502187333692  0.0000
  O3     O3        0.120651240470174    0.143731044849291    0.862232888374542  0.0000
  O2     O2        0.620493544867754    0.852044950251954    0.104692802792762  0.0000
  O2     O2        0.887334892470562    0.179246585391902    0.103316435417578  0.0000
  O2     O2        0.515257098074643    0.986893813081888    0.958296437423624  0.0000
  O2     O2        0.019388188726825    0.035865450652997    0.031383131010555  0.0000
  O3     O3        0.163653738105114    0.502254746906256    0.332736413130416  0.0000
  O3     O3        0.355540465136228    0.536026405646429    0.316973769381657  0.0000
  O2     O2        0.864244302533733    0.504800158598225    0.675020977499835  0.0000
  O2     O2        0.642638894329228    0.515411234154253    0.677192049214971  0.0000
  O3     O3        0.274344875848117    0.244988606218671    0.289981612566022  0.0000
  O3     O3        0.242125114785872    0.795462547607448    0.295859074717403  0.0000
  O2     O2        0.752563046787740    0.272987051916266    0.668907162139471  0.0000
  O2     O2        0.754059143169602    0.746202485681952    0.666782361648975  0.0000
  O1     O1        0.147772665832880    0.251863077813698    0.119024115236216  0.0000
  O3     O3        0.359599472800100    0.779992446151929    0.104446379758008  0.0000
  O2     O2        0.852400388471531    0.266073423369372    0.861863409515679  0.0000
  O2     O2        0.656276566903051    0.760056464070760    0.861733300793573  0.0000
  O2     O2        0.855900768170121    0.748216466287502    0.859746969932446  0.0000
  O2     O2        0.650118474231406    0.274749051596830    0.860827690366183  0.0000
  O2     O2        0.155467404729546    0.657866974272358    0.113285152498549  0.0000
  O2     O2        0.377582858351180    0.329749209438738    0.115229232547356  0.0000
  O2     O2        0.639078635424277    0.521372598850244    0.044312599177646  0.0000
  O2     O2        0.868630778974504    0.508164526499412    0.044087710385729  0.0000
  O2     O2        0.359502613567666    0.538784239705813    0.915879885285324  0.0000
  O3     O3        0.153556747623780    0.493640681838234    0.897155357417565  0.0000
  O2     O2        0.750095024985509    0.288741640628626    0.053179394837279  0.0000
  O2     O2        0.757591802831167    0.741223413771860    0.054582952736432  0.0000
  O3     O3        0.270803793215761    0.256268945776364    0.942221285820486  0.0000
  O2     O2        0.247119905137847    0.769293624331461    0.929225762834683  0.0000
