data_c00534.vasp
_audit_creation_method             Generated by GULP
_audit_author_name                 Salvador R. G. Balestra
_symmetry_space_group_name_H-M     'P 1             '
_symmetry_Int_Tables_number        1

loop_
_symmetry_equiv_pos_site_id
_symmetry_equiv_pos_as_xyz
_cell_length_a                       17.2176
_cell_length_b                        7.6432
_cell_length_c                       10.2778
_cell_angle_alpha                   91.1140
_cell_angle_beta                    90.9354
_cell_angle_gamma                   89.2928

loop_
_atom_site_label
_atom_site_type_symbol
_atom_site_fract_x
_atom_site_fract_y
_atom_site_fract_z
_atom_site_charge
  Ge     Ge        0.052090000000021    0.000000000000000    0.372269999999958  0.0000
  Ge     Ge        0.157776447513198    0.304701771296359    0.276143740817687  0.0000
  Ge     Ge        0.834110626907566    0.675388088569911    0.700931749681109  0.0000
  Ge     Ge        0.168086812828673    0.690870957521121    0.958758932904847  0.0000
  Si     Si        0.455353359873840    0.971826356482702    0.355701913901632  0.0000
  Si     Si        0.947738676348222    0.966633257894989    0.626285302652558  0.0000
  Si     Si        0.543940200041864    0.965295367740182    0.627007611949804  0.0000
  Si     Si        0.560469773183375    0.976637221457788    0.112005806154908  0.0000
  Si     Si        0.944825749988123    0.969940410875939    0.117439611434960  0.0000
  Si     Si        0.441274621393316    0.959173709168348    0.877334937140616  0.0000
  Si     Si        0.052619005769884    0.976208629823039    0.879149521472729  0.0000
  Si     Si        0.350855074988053    0.664706183322872    0.261284407995457  0.0000
  Si     Si        0.837994252292668    0.265853119606740    0.701578517904152  0.0000
  Si     Si        0.651789458268953    0.660710308595713    0.707490880477141  0.0000
  Si     Si        0.658442274105401    0.257123154731181    0.710011020897730  0.0000
  Si     Si        0.173560403290657    0.716624392575311    0.264643562496191  0.0000
  Si     Si        0.339032892197162    0.266582831379820    0.271916073659473  0.0000
  Si     Si        0.666188417871320    0.265144214353420    0.013548656371658  0.0000
  Si     Si        0.837473111366376    0.678756117444763    0.011194941165918  0.0000
  Si     Si        0.329710771270316    0.251667961250038    0.965883069373367  0.0000
  Si     Si        0.348305357401865    0.643934275473261    0.954969794380547  0.0000
  Si     Si        0.150091407113211    0.285359614987194    0.970831518958589  0.0000
  Si     Si        0.658411389915631    0.663397472710829    0.012961243694620  0.0000
  Si     Si        0.845318218395563    0.277220635212737    0.006140481298847  0.0000
  O1     O1        0.091838490850859    0.203304908708718    0.369287622154946  0.0000
  O2     O2        0.411720311441144    0.788706296105088    0.335206910786549  0.0000
  O2     O2        0.889946688824037    0.134519004532871    0.614967811646945  0.0000
  O2     O2        0.589325657166416    0.779910573643568    0.631701398928547  0.0000
  O3     O3        0.894249109624679    0.797501197872905    0.608955391315506  0.0000
  O2     O2        0.604934053815313    0.123704491074459    0.628625958826463  0.0000
  O3     O3        0.128465962876909    0.854395857839506    0.353387163875955  0.0000
  O2     O2        0.395028429594451    0.133245006085802    0.347434110060723  0.0000
  O3     O3        0.014728158889066    0.967758525728096    0.523690544489152  0.0000
  O2     O2        0.493374927953440    0.974025951503639    0.497216185237214  0.0000
  O3     O3        0.976441659697502    0.971690312921475    0.262781293882060  0.0000
  O2     O2        0.523234986764496    0.990232095238995    0.252531384699842  0.0000
  O2     O2        0.986877948264942    0.968485213445200    0.769381196344857  0.0000
  O2     O2        0.485981684185032    0.987404232433802    0.745961205669756  0.0000
  O2     O2        0.621249509053995    0.133762708278348    0.103645505924170  0.0000
  O2     O2        0.885489330116273    0.809244312461436    0.104399862419243  0.0000
  O2     O2        0.369653845303352    0.096865767511713    0.882808226503222  0.0000
  O3     O3        0.116257954651420    0.825323731222921    0.856595009148426  0.0000
  O2     O2        0.409639564964358    0.760846494143302    0.879260943630475  0.0000
  O2     O2        0.093994734023683    0.164997753924978    0.880569469953354  0.0000
  O2     O2        0.603706830947452    0.789463857958695    0.098025367305655  0.0000
  O2     O2        0.902775020267826    0.155981841272957    0.089373973143317  0.0000
  O2     O2        0.495559041821453    0.000323099733749    0.001206621072501  0.0000
  O2     O2        0.015370804172640    0.937706151609530    0.019031476313792  0.0000
  O3     O3        0.138142915417341    0.525450713323806    0.279828943464291  0.0000
  O2     O2        0.371789935597382    0.463274510946736    0.291773530001587  0.0000
  O3     O3        0.860247244002737    0.460608888875285    0.669939530711021  0.0000
  O2     O2        0.632419136340931    0.456417563939956    0.681822794759332  0.0000
  O3     O3        0.252575170076846    0.259570234615984    0.325132784832367  0.0000
  O2     O2        0.264226513356362    0.708280420346360    0.309776728682162  0.0000
  O2     O2        0.747490312247183    0.230372343468736    0.667559841110431  0.0000
  O3     O3        0.737197750311723    0.702173102930773    0.659722180767988  0.0000
  O3     O3        0.143147214782295    0.226062408754740    0.118538492457924  0.0000
  O2     O2        0.353468195089147    0.697039831089828    0.107388951751040  0.0000
  O2     O2        0.853383054278230    0.229228688029754    0.854206445660094  0.0000
  O2     O2        0.646412761260347    0.705794020184993    0.861262728813481  0.0000
  O3     O3        0.846806560563714    0.731562795188837    0.863026491720380  0.0000
  O2     O2        0.651448480652536    0.215214896048668    0.862396598769700  0.0000
  O3     O3        0.167804674223881    0.774245000540543    0.115578023568626  0.0000
  O2     O2        0.336654687515727    0.214074228033968    0.119052922099671  0.0000
  O2     O2        0.636287676472787    0.463308657471412    0.041121059164815  0.0000
  O2     O2        0.868199933794056    0.479553026941019    0.031007108460385  0.0000
  O2     O2        0.369137751538325    0.437701934374652    0.934774059532945  0.0000
  O3     O3        0.126592405409467    0.486054446050287    0.954886009591543  0.0000
  O2     O2        0.757158891749216    0.247501995872626    0.049310683066802  0.0000
  O2     O2        0.747803461652922    0.694442227543921    0.052259842572876  0.0000
  O2     O2        0.239307315161784    0.259884952500470    0.925095940852839  0.0000
  O3     O3        0.261971658552486    0.679270521628817    0.903135560570395  0.0000
