data_c00586.vasp
_audit_creation_method             Generated by GULP
_audit_author_name                 Salvador R. G. Balestra
_symmetry_space_group_name_H-M     'P 1             '
_symmetry_Int_Tables_number        1

loop_
_symmetry_equiv_pos_site_id
_symmetry_equiv_pos_as_xyz
_cell_length_a                       17.2367
_cell_length_b                        7.6333
_cell_length_c                       10.1687
_cell_angle_alpha                   89.9602
_cell_angle_beta                    91.3106
_cell_angle_gamma                   89.4049

loop_
_atom_site_label
_atom_site_type_symbol
_atom_site_fract_x
_atom_site_fract_y
_atom_site_fract_z
_atom_site_charge
  Ge     Ge        0.052090000000021    0.000000000000000    0.372269999999958  0.0000
  Ge     Ge        0.157460524871795    0.312085381864577    0.287506938697571  0.0000
  Ge     Ge        0.149573479592318    0.323460585561611    0.969109894909914  0.0000
  Ge     Ge        0.848677012394377    0.308043114812226    0.036950047560169  0.0000
  Si     Si        0.455308990047558    0.985732759101855    0.374558605149764  0.0000
  Si     Si        0.943439045547992    0.988272056509737    0.620958422655224  0.0000
  Si     Si        0.548004602892951    0.991366571948019    0.642814810862753  0.0000
  Si     Si        0.558846724500083    0.993206533250738    0.131312428557265  0.0000
  Si     Si        0.949562210765543    0.993609418744801    0.110748283185596  0.0000
  Si     Si        0.441763170999624    0.997212848257019    0.892763251520668  0.0000
  Si     Si        0.053566049307006    0.012576637198993    0.864412213746077  0.0000
  Si     Si        0.352450709710478    0.681665370145638    0.281843976781186  0.0000
  Si     Si        0.841554884889931    0.293923143476489    0.722712385414833  0.0000
  Si     Si        0.654177454270961    0.683396587737390    0.718788594465726  0.0000
  Si     Si        0.832166680883815    0.697850482403903    0.719256686965696  0.0000
  Si     Si        0.663023324715997    0.280567140990785    0.724541701599749  0.0000
  Si     Si        0.173222990269112    0.723756793913073    0.288736715902113  0.0000
  Si     Si        0.337476404853621    0.282095132939597    0.277743935535298  0.0000
  Si     Si        0.666252940101476    0.285728650272360    0.033190223282610  0.0000
  Si     Si        0.834747396023276    0.710489462980736    0.027999527481511  0.0000
  Si     Si        0.329704697325748    0.294008864028336    0.965939690331377  0.0000
  Si     Si        0.165815738589808    0.731519795983475    0.983234032128354  0.0000
  Si     Si        0.345325035906317    0.687399314340469    0.976251561203516  0.0000
  Si     Si        0.656054114951466    0.683600536687710    0.025626993050942  0.0000
  O1     O1        0.092454213401926    0.202128682656043    0.381163824038503  0.0000
  O2     O2        0.411617160463967    0.800052428818769    0.366035584548830  0.0000
  O2     O2        0.897604118506399    0.172197784538554    0.636774991238606  0.0000
  O2     O2        0.594592915881154    0.806573288898982    0.636491350003878  0.0000
  O2     O2        0.885062907892910    0.826886088085196    0.637408949120585  0.0000
  O2     O2        0.609405122429932    0.149268176811106    0.641397482704366  0.0000
  O3     O3        0.130159771191684    0.854766892987143    0.384569795018383  0.0000
  O2     O2        0.395224238552772    0.142728126859971    0.344661959246635  0.0000
  O3     O3        0.977104887270836    0.975441893855743    0.477703985448955  0.0000
  O2     O2        0.489296073384740    0.008179298402559    0.520512356162429  0.0000
  O3     O3        0.011065388273949    0.946191312123439    0.220970962866463  0.0000
  O2     O2        0.527053291275488    0.992685955973267    0.277388400349738  0.0000
  O2     O2        0.018071151743887    0.975001028531218    0.719789319968316  0.0000
  O2     O2        0.498210180249596    0.006728104692405    0.772519081119438  0.0000
  O2     O2        0.617650285156960    0.153303003954346    0.119517925637140  0.0000
  O2     O2        0.876341280591744    0.862828957644478    0.109512608002591  0.0000
  O2     O2        0.379515474251044    0.155224242274763    0.884517545822908  0.0000
  O2     O2        0.126111926376274    0.881239690289447    0.893040696989861  0.0000
  O2     O2        0.397751702944471    0.811735535317955    0.888316722336811  0.0000
  O3     O3        0.084293647624018    0.209386464786676    0.871425525041323  0.0000
  O2     O2        0.601423756786863    0.807855806639268    0.109558367207679  0.0000
  O3     O3        0.914354351808214    0.187748025431042    0.130042091780026  0.0000
  O2     O2        0.488345277017671    0.020847070507113    0.028991701437274  0.0000
  O2     O2        0.987312963069385    0.977673800613213    0.968176379177959  0.0000
  O3     O3        0.138732554296784    0.532091186107297    0.304426096629304  0.0000
  O2     O2        0.371432636339565    0.476479812497795    0.304708312450504  0.0000
  O2     O2        0.859878202170055    0.497956665128640    0.694585454669311  0.0000
  O2     O2        0.634771439638376    0.479558461824376    0.694802652515060  0.0000
  O3     O3        0.252668029170391    0.265659289415770    0.335826462724373  0.0000
  O2     O2        0.264880882900039    0.720080412236710    0.325784862828289  0.0000
  O2     O2        0.752031534587669    0.256059112367204    0.682366523803860  0.0000
  O2     O2        0.741994188777775    0.721069066981775    0.674838318346904  0.0000
  O1     O1        0.140585149349180    0.250972525497362    0.126917788001314  0.0000
  O2     O2        0.361796178221486    0.731820062162766    0.129102340394327  0.0000
  O3     O3        0.857703105646619    0.249885262696438    0.873998152435321  0.0000
  O2     O2        0.644850346417933    0.730505867632939    0.872058117915186  0.0000
  O2     O2        0.840567888625515    0.744393628651393    0.872370664924931  0.0000
  O2     O2        0.658819329059127    0.236182635155344    0.879125339872704  0.0000
  O2     O2        0.162267547667681    0.785909722260096    0.136521094701695  0.0000
  O2     O2        0.327234043676633    0.249491464684336    0.121259750392211  0.0000
  O2     O2        0.633265479138363    0.483028286538211    0.053025032492980  0.0000
  O3     O3        0.872686058206760    0.524091097397168    0.062020699303021  0.0000
  O2     O2        0.367179489049510    0.485905669294022    0.945952538341047  0.0000
  O3     O3        0.126383664689541    0.545000410454290    0.961238523077626  0.0000
  O3     O3        0.754500217306945    0.273562750939827    0.081779444639176  0.0000
  O2     O2        0.745174634153640    0.711418225472128    0.069218700269217  0.0000
  O3     O3        0.242331511629623    0.292487894590623    0.912074788838079  0.0000
  O2     O2        0.255084604959679    0.718517008694725    0.940365284003388  0.0000
