data_c00568.vasp
_audit_creation_method             Generated by GULP
_audit_author_name                 Salvador R. G. Balestra
_symmetry_space_group_name_H-M     'P 1             '
_symmetry_Int_Tables_number        1

loop_
_symmetry_equiv_pos_site_id
_symmetry_equiv_pos_as_xyz
_cell_length_a                       17.2369
_cell_length_b                        7.6260
_cell_length_c                       10.1805
_cell_angle_alpha                   90.6172
_cell_angle_beta                    91.4992
_cell_angle_gamma                   90.2692

loop_
_atom_site_label
_atom_site_type_symbol
_atom_site_fract_x
_atom_site_fract_y
_atom_site_fract_z
_atom_site_charge
  Ge     Ge        0.052090000000021    0.000000000000000    0.372269999999958  0.0000
  Ge     Ge        0.172854707017719    0.283777119199500    0.290837446602550  0.0000
  Ge     Ge        0.849831123042562    0.682405084487113    0.036389834296365  0.0000
  Ge     Ge        0.150538944189037    0.675558526862404    0.970539471786333  0.0000
  Si     Si        0.455007979651927    0.015929893037479    0.371546612514603  0.0000
  Si     Si        0.942319603154123    0.996289035691057    0.618961944299711  0.0000
  Si     Si        0.547693026421073    0.002121827105223    0.639773712820055  0.0000
  Si     Si        0.558928566209842    0.000037096957384    0.128240388229230  0.0000
  Si     Si        0.950355870260446    0.998995250208700    0.109208364771786  0.0000
  Si     Si        0.441606939801221    0.997356517944830    0.889214323301422  0.0000
  Si     Si        0.053692203806023    0.984790211262045    0.862247208378094  0.0000
  Si     Si        0.337185704928377    0.724017232902998    0.271579675279953  0.0000
  Si     Si        0.831867214570606    0.289835185656833    0.717939536796676  0.0000
  Si     Si        0.662550437705601    0.711051616819812    0.724336166406434  0.0000
  Si     Si        0.840945255323842    0.693928099326470    0.722616596992484  0.0000
  Si     Si        0.653807901732198    0.308074954673750    0.717884088036648  0.0000
  Si     Si        0.158117115721725    0.697784388822762    0.278577539031582  0.0000
  Si     Si        0.353487010765960    0.323783624115019    0.285041272329279  0.0000
  Si     Si        0.655526681100805    0.308843550596054    0.024257439322090  0.0000
  Si     Si        0.343856671128393    0.309495313374975    0.976817252259406  0.0000
  Si     Si        0.331606083626081    0.703481203651612    0.962584769157629  0.0000
  Si     Si        0.165186112001285    0.265526873611864    0.982355198496313  0.0000
  Si     Si        0.667386229022179    0.707160192099370    0.032626997162551  0.0000
  Si     Si        0.834381436664550    0.279155799792260    0.026235076650755  0.0000
  O1     O1        0.120075539812867    0.162293748911641    0.395858966206084  0.0000
  O2     O2        0.388183995955713    0.870897628344453    0.346178007578237  0.0000
  O2     O2        0.884183478098329    0.159770197259690    0.634148754159491  0.0000
  O2     O2        0.608448701096860    0.841924283661174    0.641730466801761  0.0000
  O2     O2        0.896732074530842    0.813747627528834    0.637028065983299  0.0000
  O2     O2        0.594887130951242    0.185344846909282    0.633592268683211  0.0000
  O3     O3        0.102110171361699    0.804825901151150    0.372074942521942  0.0000
  O2     O2        0.418097481117614    0.209781446467362    0.362032375849107  0.0000
  O3     O3        0.975284581050939    0.997321349292960    0.475133737785475  0.0000
  O2     O2        0.490226034521649    0.985984415817458    0.515626755224007  0.0000
  O3     O3        0.010862896473196    0.051511321509663    0.220537209553218  0.0000
  O2     O2        0.524949193717315    0.995928160617466    0.272248972338243  0.0000
  O2     O2        0.016984591147390    0.014344915938388    0.717525828705625  0.0000
  O2     O2        0.496271585776549    0.993483299848556    0.767052866609601  0.0000
  O2     O2        0.600510621824975    0.186817489143988    0.108181855238510  0.0000
  O3     O3        0.917014466761666    0.803353672940636    0.126888054030978  0.0000
  O2     O2        0.397053456518055    0.182255089493250    0.892079112868475  0.0000
  O3     O3        0.086021600321615    0.788751858213496    0.871925809324701  0.0000
  O2     O2        0.380128086939889    0.838067022669922    0.876606986749818  0.0000
  O2     O2        0.124072241682157    0.122691085146788    0.886016762652917  0.0000
  O2     O2        0.619502274683627    0.842144077479667    0.119098290312337  0.0000
  O2     O2        0.875493410512387    0.126371363589371    0.107837513780798  0.0000
  O2     O2        0.490186656035645    0.969412685857830    0.022792701156041  0.0000
  O2     O2        0.988313526215396    0.019269445643081    0.967686156575740  0.0000
  O3     O3        0.138862297214485    0.495003329721812    0.291736615235628  0.0000
  O2     O2        0.371378493072390    0.531508758049552    0.303575260236619  0.0000
  O2     O2        0.859505526974510    0.489347076370701    0.694180876961703  0.0000
  O2     O2        0.634209325328270    0.511972971506768    0.694562540672210  0.0000
  O3     O3        0.269599799456213    0.281458486277012    0.338992550778993  0.0000
  O2     O2        0.248699387328472    0.735330618112848    0.319023345505287  0.0000
  O2     O2        0.741530019065527    0.268500854895650    0.674419639331370  0.0000
  O2     O2        0.751465228989120    0.733317242965378    0.681952207120880  0.0000
  O3     O3        0.163427023903300    0.201995522856301    0.131447904307046  0.0000
  O2     O2        0.335705441278761    0.758651197649477    0.116144764709987  0.0000
  O2     O2        0.840863139560176    0.243737742454973    0.870681595355405  0.0000
  O2     O2        0.659239961297073    0.756342997793458    0.878997797091312  0.0000
  O3     O3        0.857612884086871    0.739268216114341    0.873693747545069  0.0000
  O2     O2        0.643837973017103    0.261248389210481    0.870572692626137  0.0000
  O3     O3        0.142611475945158    0.756925337024410    0.128705304989917  0.0000
  O2     O2        0.355734795056699    0.271234631638221    0.131099825995668  0.0000
  O2     O2        0.633814917898617    0.510758302872139    0.052093941867143  0.0000
  O3     O3        0.872664647916309    0.465388315401744    0.061026519110186  0.0000
  O2     O2        0.367440184213165    0.509027653391634    0.944733790275747  0.0000
  O3     O3        0.126359588185974    0.455436572737281    0.967510430167783  0.0000
  O2     O2        0.744801246136135    0.278940368586509    0.066743784802302  0.0000
  O3     O3        0.755693646503286    0.717965949641409    0.081468179636217  0.0000
  O2     O2        0.254026045100799    0.280813537537711    0.936861836040944  0.0000
  O3     O3        0.243065445242344    0.705028291909573    0.914212940250674  0.0000
