data_c00593.vasp
_audit_creation_method             Generated by GULP
_audit_author_name                 Salvador R. G. Balestra
_symmetry_space_group_name_H-M     'P 1             '
_symmetry_Int_Tables_number        1

loop_
_symmetry_equiv_pos_site_id
_symmetry_equiv_pos_as_xyz
_cell_length_a                       17.2026
_cell_length_b                        7.6399
_cell_length_c                       10.3019
_cell_angle_alpha                   88.7140
_cell_angle_beta                    90.2910
_cell_angle_gamma                   89.9718

loop_
_atom_site_label
_atom_site_type_symbol
_atom_site_fract_x
_atom_site_fract_y
_atom_site_fract_z
_atom_site_charge
  Ge     Ge        0.052090000000021    0.000000000000000    0.372269999999958  0.0000
  Ge     Ge        0.351379479103080    0.681716946244633    0.263685975267277  0.0000
  Ge     Ge        0.844394480669713    0.317761007086350    0.700199946561895  0.0000
  Ge     Ge        0.829205929408289    0.714555794800249    0.016062215983101  0.0000
  Si     Si        0.456805604127401    0.986083085319720    0.346173456108641  0.0000
  Si     Si        0.951513593724012    0.013430420371315    0.631132475230542  0.0000
  Si     Si        0.547603089097088    0.008611543195203    0.611304256521005  0.0000
  Si     Si        0.553382660114218    0.991244436603920    0.087737771740589  0.0000
  Si     Si        0.937959401572898    0.002354009550191    0.128375229582740  0.0000
  Si     Si        0.436666021539003    0.003279655690417    0.852193251991522  0.0000
  Si     Si        0.050406293976597    0.004465383323311    0.890607357372805  0.0000
  Si     Si        0.159727564252783    0.303259013614409    0.270375299184966  0.0000
  Si     Si        0.654365691755766    0.700699981245844    0.703640630919411  0.0000
  Si     Si        0.832598767495708    0.731922306340051    0.709235885188369  0.0000
  Si     Si        0.662942530180614    0.299999617534088    0.694845447089798  0.0000
  Si     Si        0.169408336763364    0.709497542652097    0.270118187389767  0.0000
  Si     Si        0.339193305473962    0.271719546144540    0.257848935729443  0.0000
  Si     Si        0.665047850520028    0.284059354098592    0.999957999688558  0.0000
  Si     Si        0.330628911145524    0.290177320183066    0.954629930178063  0.0000
  Si     Si        0.163438621825439    0.712881832810806    0.967152024780061  0.0000
  Si     Si        0.342886667918009    0.690152623127289    0.954305281366910  0.0000
  Si     Si        0.150780221131854    0.313056226053211    0.970126107277772  0.0000
  Si     Si        0.648363550632874    0.676245184885814    0.008677833702804  0.0000
  Si     Si        0.844537098664733    0.309533011777115    0.006230762379616  0.0000
  O3     O3        0.104131186973564    0.192461614621359    0.361626257826689  0.0000
  O3     O3        0.419283549525970    0.795303863520163    0.350751365938645  0.0000
  O3     O3        0.910536867730351    0.201394358610122    0.611605617583366  0.0000
  O2     O2        0.595510887336144    0.828348853570440    0.626917662189666  0.0000
  O2     O2        0.882745004865734    0.869055298530139    0.623763896802322  0.0000
  O2     O2        0.605032233897567    0.173436014202732    0.619810609988481  0.0000
  O3     O3        0.113614594151189    0.825601457730458    0.353898861922038  0.0000
  O2     O2        0.386026678075193    0.124633775170504    0.338407575510701  0.0000
  O3     O3        0.016815272764536    0.981330116599622    0.527299112858106  0.0000
  O2     O2        0.509120117383389    0.017868954138242    0.470856253699578  0.0000
  O3     O3        0.973040389864723    0.001717268763080    0.270886582216026  0.0000
  O2     O2        0.510872693155941    0.015582753097179    0.221918101283138  0.0000
  O2     O2        0.991918830275909    0.997260647602226    0.772045690728906  0.0000
  O2     O2        0.479046195174510    0.018878313569897    0.715402259173353  0.0000
  O2     O2        0.623650176534099    0.130001658480941    0.080787382198519  0.0000
  O3     O3        0.876051492806760    0.847191059135251    0.121830492721376  0.0000
  O2     O2        0.372788786524776    0.157463132030400    0.859564549282964  0.0000
  O2     O2        0.114089908351938    0.849912416757535    0.880319380683239  0.0000
  O2     O2        0.395531627934136    0.813638346435957    0.861711309710672  0.0000
  O2     O2        0.092456699949432    0.194187209668771    0.887765908797618  0.0000
  O2     O2        0.585625422894990    0.793003582940417    0.082819546990025  0.0000
  O2     O2        0.896616559404879    0.188411093390304    0.100953224434672  0.0000
  O2     O2        0.497208405406075    0.032635340571900    0.967433114357959  0.0000
  O2     O2        0.005280464634569    0.967968201135219    0.024124798280617  0.0000
  O2     O2        0.145407177789552    0.507455963999775    0.292303199289409  0.0000
  O3     O3        0.370265334616462    0.462465529078143    0.288913256719954  0.0000
  O3     O3        0.865028529364353    0.538189905588486    0.690735133032331  0.0000
  O2     O2        0.633713334428055    0.500061863371865    0.672465732163868  0.0000
  O2     O2        0.249375186388606    0.256295020361602    0.300102678213013  0.0000
  O3     O3        0.258386505013709    0.733437264331077    0.311267011333674  0.0000
  O3     O3        0.750399446963509    0.282569182823552    0.645644777114136  0.0000
  O2     O2        0.742736604967287    0.739999007690825    0.660467629518907  0.0000
  O2     O2        0.140360140199276    0.257134908635770    0.120872398539146  0.0000
  O3     O3        0.361471546995962    0.737604279040633    0.101207367619912  0.0000
  O3     O3        0.854232756837787    0.247801536873908    0.859994857055963  0.0000
  O2     O2        0.647180379254015    0.732647812438238    0.856775935599653  0.0000
  O3     O3        0.835831587667029    0.789373142811157    0.857836365932437  0.0000
  O2     O2        0.662229245216969    0.246510280415927    0.847196922693320  0.0000
  O2     O2        0.159641628609972    0.762994366321814    0.117963692044522  0.0000
  O2     O2        0.346443890566793    0.236183946249885    0.104267149355703  0.0000
  O2     O2        0.624813212991799    0.471666056499709    0.027010314933436  0.0000
  O3     O3        0.870116366954599    0.507987669394557    0.022758879697265  0.0000
  O2     O2        0.362341304891765    0.486859824100913    0.928309919357977  0.0000
  O2     O2        0.129639670188281    0.517416811071381    0.946900126267840  0.0000
  O2     O2        0.754013664239195    0.291529901639125    0.046633499072378  0.0000
  O3     O3        0.733435451386654    0.707191257181022    0.064402381153784  0.0000
  O2     O2        0.238842631694110    0.280468486404790    0.925163622739983  0.0000
  O2     O2        0.252337104091657    0.723383992069777    0.921229654255523  0.0000
