data_c00535.vasp
_audit_creation_method             Generated by GULP
_audit_author_name                 Salvador R. G. Balestra
_symmetry_space_group_name_H-M     'P 1             '
_symmetry_Int_Tables_number        1

loop_
_symmetry_equiv_pos_site_id
_symmetry_equiv_pos_as_xyz
_cell_length_a                       17.1982
_cell_length_b                        7.6124
_cell_length_c                       10.2622
_cell_angle_alpha                   91.5139
_cell_angle_beta                    90.3247
_cell_angle_gamma                   88.9124

loop_
_atom_site_label
_atom_site_type_symbol
_atom_site_fract_x
_atom_site_fract_y
_atom_site_fract_z
_atom_site_charge
  Ge     Ge        0.052090000000021    0.000000000000000    0.372269999999958  0.0000
  Ge     Ge        0.154783521253288    0.309314935480523    0.282786554745899  0.0000
  Ge     Ge        0.837207772983383    0.668815887798627    0.704910158811797  0.0000
  Ge     Ge        0.351543698960189    0.625235821945698    0.951097386460011  0.0000
  Si     Si        0.454280558725500    0.967061580258067    0.357589042967681  0.0000
  Si     Si        0.954503034299334    0.951918965016824    0.630878675321319  0.0000
  Si     Si        0.548038888651477    0.960972506083816    0.623491589440106  0.0000
  Si     Si        0.558612651467320    0.970345794685418    0.108781242458191  0.0000
  Si     Si        0.942477095032518    0.964446502413696    0.125107599421422  0.0000
  Si     Si        0.443990826145125    0.941266958673994    0.869774803326231  0.0000
  Si     Si        0.054632882960649    0.959004924604937    0.888915949330074  0.0000
  Si     Si        0.353575538005124    0.659512590054791    0.260737086099177  0.0000
  Si     Si        0.843801992283353    0.256242899512593    0.705466521460585  0.0000
  Si     Si        0.654696658265905    0.654140200711074    0.708062417687892  0.0000
  Si     Si        0.664102419012119    0.247662238811001    0.708296561760147  0.0000
  Si     Si        0.175994737987953    0.713100748473998    0.259413370136584  0.0000
  Si     Si        0.337007768256431    0.258272243209904    0.276276203149596  0.0000
  Si     Si        0.666350958406198    0.256532235656806    0.012323078245337  0.0000
  Si     Si        0.836766752852506    0.674046355631714    0.014842711623702  0.0000
  Si     Si        0.329898605790870    0.224027632740238    0.970864333181970  0.0000
  Si     Si        0.170990822132054    0.668439959648021    0.952814136073479  0.0000
  Si     Si        0.150488169027431    0.274190222727748    0.973588172315335  0.0000
  Si     Si        0.657441948231595    0.655511713063340    0.013765193910207  0.0000
  Si     Si        0.845608488516148    0.271371443961838    0.009975373783075  0.0000
  O1     O1        0.087244186140613    0.208276093823035    0.374185987283780  0.0000
  O2     O2        0.412421754023724    0.780415153802859    0.343505200155457  0.0000
  O2     O2        0.899887844681156    0.127016482001970    0.621368788327453  0.0000
  O2     O2        0.591489664694593    0.771771548618249    0.632427432422813  0.0000
  O3     O3        0.897626358005591    0.789102009079473    0.611839310781087  0.0000
  O2     O2        0.611276570400659    0.114737955043228    0.625369347608054  0.0000
  O3     O3        0.133147259530090    0.875384426921691    0.328228267803838  0.0000
  O2     O2        0.391123010375489    0.126331063693241    0.357837587719449  0.0000
  O3     O3        0.021358050502459    0.948326224217536    0.525495784223680  0.0000
  O2     O2        0.500188409772296    0.970671431857856    0.491868608623376  0.0000
  O3     O3        0.973267963566523    0.967872174007997    0.270735221763248  0.0000
  O2     O2        0.516828172315593    0.992840630412905    0.245553761299113  0.0000
  O2     O2        0.993354483162196    0.942507661284056    0.773342415694769  0.0000
  O2     O2        0.487155832507534    0.992287240605501    0.739548359050842  0.0000
  O2     O2        0.620687114122095    0.124959470678053    0.101140543679001  0.0000
  O2     O2        0.882488751126873    0.805363477551690    0.110801963219160  0.0000
  O2     O2        0.365654716309042    0.060012715618697    0.888624399534164  0.0000
  O2     O2        0.119503157381293    0.804761227897148    0.870671311823627  0.0000
  O3     O3        0.417730391760873    0.740846578931596    0.862806128279108  0.0000
  O2     O2        0.094253426979422    0.149706629156852    0.887153476374000  0.0000
  O2     O2        0.601803718646138    0.780644471478426    0.100869653248980  0.0000
  O2     O2        0.901499319033459    0.152151793823247    0.096900513643405  0.0000
  O2     O2        0.497939790579108    0.989042782664799    0.992350959571176  0.0000
  O2     O2        0.013848841087266    0.929885855175530    0.026976094447102  0.0000
  O3     O3        0.136342097486906    0.532474427654480    0.296138256184645  0.0000
  O2     O2        0.371746570054895    0.454458542268237    0.287043388763616  0.0000
  O3     O3        0.864352239373188    0.452725093176764    0.675638522216858  0.0000
  O2     O2        0.638074849732538    0.448035053213773    0.680941114521918  0.0000
  O3     O3        0.249779114430779    0.261778576052461    0.328935915369607  0.0000
  O2     O2        0.265776319037126    0.705655699254473    0.306416961495472  0.0000
  O2     O2        0.753973210771532    0.218631347268173    0.667583626746981  0.0000
  O3     O3        0.740572107982889    0.697348270588994    0.662405674276015  0.0000
  O3     O3        0.138789149684443    0.234826271151754    0.123875497851385  0.0000
  O3     O3        0.363889030143042    0.698901439510750    0.109948806590359  0.0000
  O2     O2        0.856402120291008    0.218497305949122    0.858483524113736  0.0000
  O2     O2        0.646323811468621    0.699566119093320    0.862122605269252  0.0000
  O3     O3        0.847563012845181    0.728643986735487    0.867246257090164  0.0000
  O2     O2        0.655158717247768    0.205352798271899    0.860387356211671  0.0000
  O2     O2        0.176362919273288    0.732000340663171    0.103348736435726  0.0000
  O2     O2        0.335987340988810    0.192919218132610    0.125442134910813  0.0000
  O2     O2        0.634489955494838    0.455023887450602    0.039159956999142  0.0000
  O2     O2        0.868367080563378    0.474455742337340    0.033345337079271  0.0000
  O3     O3        0.371934388035968    0.402813238322156    0.936773820128619  0.0000
  O2     O2        0.130425627846263    0.477647380884066    0.943821209370436  0.0000
  O2     O2        0.756839548475583    0.242626278472186    0.051229670218284  0.0000
  O2     O2        0.746381517797528    0.686340350458589    0.054119388858607  0.0000
  O2     O2        0.239485090214298    0.237188819000858    0.931833636871858  0.0000
  O3     O3        0.257206411397314    0.658402418856649    0.896846260575697  0.0000
