data_c00595.vasp
_audit_creation_method             Generated by GULP
_audit_author_name                 Salvador R. G. Balestra
_symmetry_space_group_name_H-M     'P 1             '
_symmetry_Int_Tables_number        1

loop_
_symmetry_equiv_pos_site_id
_symmetry_equiv_pos_as_xyz
_cell_length_a                       17.2240
_cell_length_b                        7.6468
_cell_length_c                       10.2704
_cell_angle_alpha                   89.1015
_cell_angle_beta                    90.3659
_cell_angle_gamma                   89.6137

loop_
_atom_site_label
_atom_site_type_symbol
_atom_site_fract_x
_atom_site_fract_y
_atom_site_fract_z
_atom_site_charge
  Ge     Ge        0.052090000000021    0.000000000000000    0.372269999999958  0.0000
  Ge     Ge        0.352186367914495    0.674493655045515    0.277337935754463  0.0000
  Ge     Ge        0.842146397436691    0.319674720358740    0.700738592036552  0.0000
  Ge     Ge        0.166435140221748    0.715873157866643    0.968261689580147  0.0000
  Si     Si        0.455939386023701    0.983232438432305    0.356141542121502  0.0000
  Si     Si        0.949509132739801    0.016758441341809    0.630568632751652  0.0000
  Si     Si        0.547033210727113    0.012546757383994    0.620808250369649  0.0000
  Si     Si        0.558198614752299    0.002516868168058    0.102148618557131  0.0000
  Si     Si        0.942936010221296    0.998757655948674    0.122356269122050  0.0000
  Si     Si        0.441435369986705    0.995262528931687    0.866246762906970  0.0000
  Si     Si        0.053197803521482    0.007954801792098    0.884209572031515  0.0000
  Si     Si        0.158528237913605    0.304003704537235    0.272104605041103  0.0000
  Si     Si        0.654547893462891    0.708299966964852    0.713521547861592  0.0000
  Si     Si        0.834269264366348    0.728187226289129    0.710854624665325  0.0000
  Si     Si        0.660432776636242    0.305474454426742    0.708277333561532  0.0000
  Si     Si        0.171595156733925    0.712500088570793    0.276052589684095  0.0000
  Si     Si        0.337412673102422    0.267379250713311    0.271097904703806  0.0000
  Si     Si        0.667189414988328    0.295992173795451    0.014625842423581  0.0000
  Si     Si        0.835755756454827    0.709919953441203    0.015431181089721  0.0000
  Si     Si        0.333162835563041    0.284301038622112    0.966548873344814  0.0000
  Si     Si        0.347778757044980    0.681225487795317    0.963980963249358  0.0000
  Si     Si        0.152803348070927    0.311183694431620    0.972958949049340  0.0000
  Si     Si        0.656347336816382    0.692763843716800    0.016799529028582  0.0000
  Si     Si        0.845816043471272    0.310137150761753    0.012160647681153  0.0000
  O3     O3        0.100382482276166    0.196972640334796    0.361142082428668  0.0000
  O3     O3        0.421420634720534    0.790153406198737    0.360572704252917  0.0000
  O3     O3        0.905473364208826    0.200293372601285    0.608286791275395  0.0000
  O2     O2        0.598165685813411    0.835830003784654    0.631745709573705  0.0000
  O2     O2        0.882197443280269    0.870020007083851    0.629145334466993  0.0000
  O2     O2        0.600792049260906    0.182060235594428    0.634152291315524  0.0000
  O3     O3        0.115833284862871    0.827422111005258    0.363237323923673  0.0000
  O2     O2        0.382517826869802    0.115768437185018    0.350333774468495  0.0000
  O3     O3        0.014412724622359    0.982933463076496    0.526577372273211  0.0000
  O2     O2        0.508555991044036    0.021707415646184    0.479865544456476  0.0000
  O3     O3        0.974240212076056    0.989329980401000    0.267563148188999  0.0000
  O2     O2        0.508534483682327    0.015901043167992    0.230548989924133  0.0000
  O2     O2        0.989318369878713    0.015253349068199    0.772711838235867  0.0000
  O2     O2        0.478381085427307    0.013108127509088    0.724904959933406  0.0000
  O2     O2        0.620855333779586    0.157420018439709    0.101514450023303  0.0000
  O2     O2        0.882203202164288    0.841425537035055    0.105461972315526  0.0000
  O2     O2        0.374209992357888    0.142238714653584    0.876589406345283  0.0000
  O3     O3        0.114261623702790    0.852657647362085    0.866292951789478  0.0000
  O2     O2        0.406627635890562    0.801146852343013    0.880954917523000  0.0000
  O2     O2        0.098829466732621    0.191776956935467    0.883623040633099  0.0000
  O2     O2        0.601291249986919    0.814100804075420    0.102939867565607  0.0000
  O2     O2        0.902237522683657    0.187268690732410    0.098686419644654  0.0000
  O2     O2        0.505411159962890    0.030697803946186    0.975398469264406  0.0000
  O2     O2        0.013992801564269    0.970497042799700    0.024204403057801  0.0000
  O2     O2        0.143751109013353    0.510764921262525    0.280777766915664  0.0000
  O3     O3        0.371824168504014    0.455137214693811    0.302397979004971  0.0000
  O3     O3        0.863252254832441    0.537048733766251    0.675230408702259  0.0000
  O2     O2        0.634728657364758    0.507413643441422    0.683506295220694  0.0000
  O2     O2        0.247317753550611    0.260444729290324    0.313191436898041  0.0000
  O3     O3        0.259213494974046    0.721627867031582    0.328358474365077  0.0000
  O3     O3        0.746913709121997    0.279119544441916    0.657345439184354  0.0000
  O2     O2        0.743196025914789    0.747764690063200    0.674675334600466  0.0000
  O2     O2        0.144108874559414    0.245761613077065    0.122925987237376  0.0000
  O3     O3        0.356838786765028    0.729503991495386    0.114258079011902  0.0000
  O3     O3        0.855921827526634    0.263823554463317    0.862696883819639  0.0000
  O2     O2        0.642404081731901    0.745125262443334    0.865988621772231  0.0000
  O2     O2        0.845800488537447    0.762346746150963    0.864443684555991  0.0000
  O2     O2        0.659077455890363    0.257516157680579    0.861771979751475  0.0000
  O3     O3        0.166410218815409    0.782499076285911    0.127783345704767  0.0000
  O2     O2        0.343872751165942    0.229625084513164    0.117324065868315  0.0000
  O2     O2        0.634729450649079    0.490569875651234    0.043482181583329  0.0000
  O2     O2        0.867811498183705    0.512472408962109    0.037602731948420  0.0000
  O2     O2        0.369614265436033    0.476449792246979    0.943197817316526  0.0000
  O3     O3        0.126943468658906    0.509706157131506    0.955587654069569  0.0000
  O2     O2        0.757072874183792    0.279865720874317    0.055449466465230  0.0000
  O2     O2        0.745777586578775    0.722926236747243    0.054959181532441  0.0000
  O2     O2        0.242322038048302    0.290045546499865    0.929574492329657  0.0000
  O3     O3        0.260916850176966    0.714734496667604    0.914886181830676  0.0000
