data_c00554.vasp
_audit_creation_method             Generated by GULP
_audit_author_name                 Salvador R. G. Balestra
_symmetry_space_group_name_H-M     'P 1             '
_symmetry_Int_Tables_number        1

loop_
_symmetry_equiv_pos_site_id
_symmetry_equiv_pos_as_xyz
_cell_length_a                       17.0993
_cell_length_b                        7.6349
_cell_length_c                       10.2718
_cell_angle_alpha                   91.2998
_cell_angle_beta                    89.7213
_cell_angle_gamma                   89.0931

loop_
_atom_site_label
_atom_site_type_symbol
_atom_site_fract_x
_atom_site_fract_y
_atom_site_fract_z
_atom_site_charge
  Ge     Ge        0.052090000000021    0.000000000000000    0.372269999999958  0.0000
  Ge     Ge        0.153705596977250    0.317923249530917    0.284578648451629  0.0000
  Ge     Ge        0.339479319019079    0.254568556210166    0.278202322449123  0.0000
  Ge     Ge        0.335670319537852    0.238089611094229    0.961467131694475  0.0000
  Si     Si        0.458831671180774    0.967466084509012    0.354632536992680  0.0000
  Si     Si        0.958410078999747    0.952906292791202    0.637580273364682  0.0000
  Si     Si        0.560190288494161    0.952666889982231    0.608551465375447  0.0000
  Si     Si        0.555808148879159    0.979710101840352    0.093755021673339  0.0000
  Si     Si        0.944178846252713    0.966287041775387    0.124957588689762  0.0000
  Si     Si        0.446478580830032    0.950382802747616    0.850916567710500  0.0000
  Si     Si        0.060542026515735    0.976010724826110    0.892353446826478  0.0000
  Si     Si        0.357779845230609    0.661194360350254    0.260708289766574  0.0000
  Si     Si        0.850155583920465    0.260704789445056    0.710740517911949  0.0000
  Si     Si        0.664731597721224    0.652165660246788    0.702731338239137  0.0000
  Si     Si        0.845179959320568    0.662751903319424    0.710717862454277  0.0000
  Si     Si        0.669882369648522    0.249890210518876    0.706091563765904  0.0000
  Si     Si        0.177296699961281    0.718463776742112    0.267098786750565  0.0000
  Si     Si        0.667321360897347    0.264117937478672    0.010081604918326  0.0000
  Si     Si        0.838012623629945    0.674278035109831    0.014459034879821  0.0000
  Si     Si        0.176085771024628    0.689292141696351    0.962645536733806  0.0000
  Si     Si        0.356335229966770    0.642695292101427    0.958934397747989  0.0000
  Si     Si        0.154559064906432    0.295813720738972    0.969721532462611  0.0000
  Si     Si        0.657199776920491    0.662832306206103    0.006277884647487  0.0000
  Si     Si        0.847649227565276    0.275106453224322    0.015176101408783  0.0000
  O1     O1        0.081288516315647    0.212038571965882    0.365079019491688  0.0000
  O2     O2        0.414161755466190    0.783552391150930    0.345694084883761  0.0000
  O2     O2        0.907522871805474    0.133176813375040    0.627240384585486  0.0000
  O2     O2        0.610994636361891    0.773689414404386    0.614244802709022  0.0000
  O2     O2        0.899733735178847    0.788776216725709    0.628740388758648  0.0000
  O2     O2        0.616616010061450    0.118678812850789    0.623842654577773  0.0000
  O3     O3        0.137644441345469    0.882507255986638    0.339342436604144  0.0000
  O3     O3        0.395967711181807    0.121769922100066    0.375405349596045  0.0000
  O3     O3        0.020865952538458    0.941659302561967    0.524284654616282  0.0000
  O2     O2        0.521371027730199    0.960492928131078    0.468814012549446  0.0000
  O3     O3        0.974847638717866    0.957510512181418    0.269623498977739  0.0000
  O2     O2        0.505370310745539    0.003863196391050    0.222438372718136  0.0000
  O2     O2        0.002991370706185    0.948802205478013    0.773669071150634  0.0000
  O2     O2        0.492405277116694    0.954608626015138    0.716000540125501  0.0000
  O2     O2        0.619394847257678    0.132902988442243    0.097199598295788  0.0000
  O2     O2        0.882845359106089    0.811084523922867    0.104687919678619  0.0000
  O3     O3        0.376612482483747    0.090073318055418    0.851474133174299  0.0000
  O2     O2        0.131951398042043    0.834911008791179    0.877870925634906  0.0000
  O2     O2        0.413187875458602    0.755640173038066    0.869591232986662  0.0000
  O2     O2        0.091984227941583    0.174309820166535    0.893867307521945  0.0000
  O2     O2        0.598755024153725    0.789678647685287    0.087872864904673  0.0000
  O2     O2        0.902789328033079    0.154921643867650    0.102237226046062  0.0000
  O2     O2        0.501276700835701    0.010382635412390    0.970246142986682  0.0000
  O2     O2        0.016994837073032    0.937749645715966    0.027404539746676  0.0000
  O3     O3        0.134524413279767    0.540528486815159    0.301971165350568  0.0000
  O3     O3        0.379756228022121    0.461489616501285    0.280431239503883  0.0000
  O2     O2        0.870682678155667    0.461268691536235    0.680942862132381  0.0000
  O2     O2        0.645322886129072    0.449190376724232    0.673758949679498  0.0000
  O1     O1        0.245995948832616    0.267129038102587    0.337885497808662  0.0000
  O2     O2        0.268214409422322    0.696951430494282    0.307013195259401  0.0000
  O2     O2        0.761121973500686    0.219782328884962    0.670392751754361  0.0000
  O2     O2        0.755052930641366    0.689424893599617    0.669871453001877  0.0000
  O3     O3        0.151815492314802    0.255222703311053    0.121560570976182  0.0000
  O2     O2        0.366331337036929    0.709022334656666    0.108568029357258  0.0000
  O2     O2        0.862140023640169    0.225700404918295    0.863627485053416  0.0000
  O2     O2        0.646580500048509    0.700839179824630    0.853625248353540  0.0000
  O2     O2        0.853645394203711    0.711562440736496    0.863227780574773  0.0000
  O2     O2        0.657477551762192    0.213643447355611    0.858226280993915  0.0000
  O2     O2        0.173048630389306    0.750601787361393    0.112796103865490  0.0000
  O1     O1        0.339800739859977    0.176112986489495    0.119850490781014  0.0000
  O2     O2        0.636149405069155    0.462690991011148    0.036313691559532  0.0000
  O2     O2        0.867921271969738    0.477729435003952    0.045121454543506  0.0000
  O3     O3        0.378936640748685    0.440891582566454    0.945057306561020  0.0000
  O2     O2        0.134121523772448    0.501470226086476    0.945749944231181  0.0000
  O2     O2        0.757457389176965    0.244777353829103    0.050970523072008  0.0000
  O2     O2        0.746316918259033    0.697344599622643    0.046839063955543  0.0000
  O3     O3        0.239675218544484    0.255299872837589    0.913024281252176  0.0000
  O2     O2        0.266063479155035    0.673325122391154    0.915643643862176  0.0000
