data_c00527.vasp
_audit_creation_method             Generated by GULP
_audit_author_name                 Salvador R. G. Balestra
_symmetry_space_group_name_H-M     'P 1             '
_symmetry_Int_Tables_number        1

loop_
_symmetry_equiv_pos_site_id
_symmetry_equiv_pos_as_xyz
_cell_length_a                       17.1799
_cell_length_b                        7.6166
_cell_length_c                       10.2678
_cell_angle_alpha                   90.2980
_cell_angle_beta                    90.2282
_cell_angle_gamma                   90.2650

loop_
_atom_site_label
_atom_site_type_symbol
_atom_site_fract_x
_atom_site_fract_y
_atom_site_fract_z
_atom_site_charge
  Ge     Ge        0.052090000000021    0.000000000000000    0.372269999999958  0.0000
  Ge     Ge        0.158587813855296    0.316104532859425    0.293916195592326  0.0000
  Ge     Ge        0.657520628508437    0.665171860267986    0.723237006169323  0.0000
  Ge     Ge        0.655062599658165    0.652112127847873    0.040998546870286  0.0000
  Si     Si        0.457373879364950    0.995153161061915    0.378910146898370  0.0000
  Si     Si        0.955385082524323    0.983242855349265    0.634736948069747  0.0000
  Si     Si        0.552689954732430    0.972293931879181    0.640023733153550  0.0000
  Si     Si        0.562120256858179    0.969419503864182    0.134595272501919  0.0000
  Si     Si        0.951842870972955    0.978192086925743    0.106953663499176  0.0000
  Si     Si        0.449609049287737    0.985650225147132    0.893551830067059  0.0000
  Si     Si        0.065873488161649    0.992129214037634    0.871858985725722  0.0000
  Si     Si        0.355921167867604    0.685068552805322    0.282612389400663  0.0000
  Si     Si        0.851877236220791    0.287887288235835    0.726486157980383  0.0000
  Si     Si        0.836847388753508    0.688641642734781    0.728797378183732  0.0000
  Si     Si        0.672605429725351    0.252150920332050    0.726099351090578  0.0000
  Si     Si        0.175607533465548    0.726264298392386    0.284532814792021  0.0000
  Si     Si        0.341399516468567    0.283200692438994    0.290482687815433  0.0000
  Si     Si        0.674655159764762    0.247360433536879    0.030914020880639  0.0000
  Si     Si        0.834645641359451    0.683500260698918    0.037697405970672  0.0000
  Si     Si        0.338470951627115    0.275655702519907    0.984413628701724  0.0000
  Si     Si        0.173777641061950    0.706341554186735    0.981673255266569  0.0000
  Si     Si        0.353705024808082    0.673128472328230    0.980018445564975  0.0000
  Si     Si        0.159127777687324    0.303284859452793    0.985177770889630  0.0000
  Si     Si        0.854447854023031    0.291408263675995    0.030146782511095  0.0000
  O1     O1        0.090461206984598    0.206342418309790    0.382925713582693  0.0000
  O2     O2        0.413934212202609    0.807610929133906    0.365274762717690  0.0000
  O2     O2        0.910470835893590    0.168754123179323    0.643382525403833  0.0000
  O3     O3        0.589270077255984    0.780629103512543    0.634829683251174  0.0000
  O2     O2        0.897744651656956    0.825455767695692    0.671294954388535  0.0000
  O2     O2        0.625419945888068    0.108097672372174    0.642886300187064  0.0000
  O3     O3        0.133891110409335    0.866866430502409    0.373225555057908  0.0000
  O2     O2        0.395363808051771    0.151647906891758    0.370580132253910  0.0000
  O3     O3        0.984604817461174    0.955595444935525    0.489757923055789  0.0000
  O2     O2        0.498372349637763    0.007585713306259    0.517320316926992  0.0000
  O3     O3        0.007821636644247    0.952217563796624    0.225877367490032  0.0000
  O2     O2        0.523462194917018    0.018402957369345    0.270913115209249  0.0000
  O2     O2        0.032131806288922    0.984877697452826    0.726026725002975  0.0000
  O2     O2        0.499307676590670    0.006239556575063    0.765098580494725  0.0000
  O2     O2        0.638572637330430    0.090930190917049    0.115342417887412  0.0000
  O2     O2        0.885209512111454    0.830004637333328    0.109951041147236  0.0000
  O2     O2        0.383369470815098    0.134575589633134    0.897361767479989  0.0000
  O2     O2        0.129877073767823    0.839172285301622    0.886259581842415  0.0000
  O2     O2        0.409774969710117    0.792483552677670    0.892232755538680  0.0000
  O2     O2        0.103582347114192    0.184350638823583    0.893957866688171  0.0000
  O3     O3        0.589398866319973    0.769684161792670    0.133282432627976  0.0000
  O2     O2        0.911505198692607    0.170216126823056    0.114761509033578  0.0000
  O2     O2        0.502815772810113    0.014510632407456    0.019228235106409  0.0000
  O2     O2        0.996529231470041    0.955280605706368    0.971173218573083  0.0000
  O3     O3        0.140869050735064    0.535525260819364    0.313180328208028  0.0000
  O2     O2        0.372860470497764    0.481803997713814    0.313433776861125  0.0000
  O2     O2        0.869245970756320    0.492704871681247    0.699302373965329  0.0000
  O3     O3        0.639748337879960    0.443715587506104    0.700745605175113  0.0000
  O3     O3        0.253450205453121    0.268076263518157    0.338091455247876  0.0000
  O2     O2        0.267319442028075    0.728162648748295    0.318810423538239  0.0000
  O2     O2        0.763366273754013    0.244000463674799    0.684843508845586  0.0000
  O3     O3        0.751397817191183    0.710211830627867    0.669696168169995  0.0000
  O3     O3        0.144982985307912    0.250531057613875    0.133201358693861  0.0000
  O2     O2        0.369970399301289    0.723944262204206    0.130270116241741  0.0000
  O2     O2        0.865683470047358    0.244248075179226    0.878152087267671  0.0000
  O1     O1        0.644079128743576    0.718703778259342    0.883349990548576  0.0000
  O2     O2        0.824962732125616    0.716389215151102    0.883299112528303  0.0000
  O2     O2        0.666512302674720    0.202862644931838    0.878031494806411  0.0000
  O2     O2        0.164150527684172    0.768924195191477    0.130756798954866  0.0000
  O2     O2        0.345191401626454    0.233908010576411    0.137414726285065  0.0000
  O3     O3        0.633638011140963    0.431360572406908    0.058204410973031  0.0000
  O2     O2        0.875950266312026    0.494180539924344    0.059130362554515  0.0000
  O2     O2        0.373617632987174    0.469076534685899    0.955022804969123  0.0000
  O2     O2        0.139533902811425    0.509273378523641    0.964558695696589  0.0000
  O2     O2        0.765340781322275    0.259280794179688    0.070342554436838  0.0000
  O3     O3        0.749215995270239    0.684587325420543    0.096409598631747  0.0000
  O2     O2        0.248187808550737    0.268804157028294    0.944091165993873  0.0000
  O2     O2        0.264339140519774    0.709243350765001    0.943126216916011  0.0000
