data_c00524.vasp
_audit_creation_method             Generated by GULP
_audit_author_name                 Salvador R. G. Balestra
_symmetry_space_group_name_H-M     'P 1             '
_symmetry_Int_Tables_number        1

loop_
_symmetry_equiv_pos_site_id
_symmetry_equiv_pos_as_xyz
_cell_length_a                       17.3065
_cell_length_b                        7.6598
_cell_length_c                       10.1196
_cell_angle_alpha                   91.3114
_cell_angle_beta                    90.8206
_cell_angle_gamma                   90.6727

loop_
_atom_site_label
_atom_site_type_symbol
_atom_site_fract_x
_atom_site_fract_y
_atom_site_fract_z
_atom_site_charge
  Ge     Ge        0.052090000000021    0.000000000000000    0.372269999999958  0.0000
  Ge     Ge        0.171663136585946    0.291078578086372    0.294420779040174  0.0000
  Ge     Ge        0.658747523825334    0.697261504276532    0.721766808397863  0.0000
  Ge     Ge        0.155850875886578    0.684457455481350    0.976024699743539  0.0000
  Si     Si        0.454143797417981    0.024151505836479    0.381376252926481  0.0000
  Si     Si        0.946733324344841    0.997969809121607    0.624214121538869  0.0000
  Si     Si        0.547918010052227    0.991774096798723    0.644104769768833  0.0000
  Si     Si        0.562184758202069    0.003945608728716    0.142061421634325  0.0000
  Si     Si        0.948978389226813    0.013409767547439    0.106400319842783  0.0000
  Si     Si        0.446294838543678    0.001895555738169    0.901032896573381  0.0000
  Si     Si        0.057457344651017    0.987207208556231    0.863729678262047  0.0000
  Si     Si        0.339797990884779    0.724579137683421    0.280682979880433  0.0000
  Si     Si        0.839659713566578    0.296680837617011    0.726798911311789  0.0000
  Si     Si        0.839892411954557    0.697706228222432    0.723340046099935  0.0000
  Si     Si        0.661104648910008    0.287847880901728    0.726543688963599  0.0000
  Si     Si        0.161706226528936    0.703962624007435    0.286544149002165  0.0000
  Si     Si        0.351635177267217    0.326158349427409    0.290502400606948  0.0000
  Si     Si        0.663300476106005    0.304889515927406    0.035328012346913  0.0000
  Si     Si        0.841780078195794    0.705012718331298    0.035225989821952  0.0000
  Si     Si        0.344875705388401    0.310959700280173    0.979547879931156  0.0000
  Si     Si        0.336378461159950    0.704063809297286    0.969315502903578  0.0000
  Si     Si        0.166976432777181    0.274606570807920    0.983736303185916  0.0000
  Si     Si        0.664033166243160    0.706580003787521    0.036641983181127  0.0000
  Si     Si        0.841400599584989    0.309055025991270    0.036275340839794  0.0000
  O1     O1        0.115350770742964    0.171878560393076    0.395651630853900  0.0000
  O2     O2        0.391729260115136    0.869975033873829    0.355590156663278  0.0000
  O2     O2        0.893366361644901    0.166617878071229    0.645220951050195  0.0000
  O3     O3        0.595181702660921    0.814917880894154    0.628777810048182  0.0000
  O2     O2        0.899313275749957    0.820205625642296    0.648177186748558  0.0000
  O2     O2        0.610162846002627    0.149879286740126    0.641478361589370  0.0000
  O3     O3        0.106646353198942    0.813462533865996    0.381017283947598  0.0000
  O2     O2        0.415147278892099    0.212328911801807    0.365493824780615  0.0000
  O3     O3        0.974732163698637    0.996285840546201    0.475632088951894  0.0000
  O2     O2        0.484102434647429    0.011279295399487    0.530597395049036  0.0000
  O3     O3        0.014169997792817    0.023367132852863    0.215048150745471  0.0000
  O2     O2        0.527874554356917    0.006073912517940    0.287899359264299  0.0000
  O2     O2        0.024020969952956    0.008363841547540    0.715667280937584  0.0000
  O2     O2        0.504875447064068    0.995070067963330    0.782702638529801  0.0000
  O2     O2        0.611669914538503    0.180925482081218    0.124241060134821  0.0000
  O2     O2        0.897177079278607    0.837045694487992    0.118147300074070  0.0000
  O2     O2        0.398402119083052    0.180838061791478    0.896488474585003  0.0000
  O3     O3        0.092939040815817    0.796534020112944    0.877286534054724  0.0000
  O2     O2        0.388479752094363    0.836175740232283    0.887288293774874  0.0000
  O2     O2        0.123962291541702    0.133406810292545    0.888008568828339  0.0000
  O2     O2        0.614828221909273    0.833050752594833    0.130374784652199  0.0000
  O2     O2        0.893872023667691    0.181814351846883    0.121483873135997  0.0000
  O2     O2        0.491729136576910    0.991875450306020    0.038940310832299  0.0000
  O2     O2        0.987271145229698    0.015710517269042    0.962965078333538  0.0000
  O3     O3        0.140259448146958    0.502751961976936    0.297534416270377  0.0000
  O2     O2        0.371729710423995    0.532134458193799    0.312361343438932  0.0000
  O2     O2        0.862501277468757    0.495917472405175    0.694461159379594  0.0000
  O3     O3        0.634530737296172    0.480613853569132    0.696723390169814  0.0000
  O3     O3        0.267510958129251    0.284660623194152    0.344546591741867  0.0000
  O2     O2        0.251708351893865    0.738383184610677    0.329112452294632  0.0000
  O2     O2        0.750368259191031    0.262516916037454    0.686255366324774  0.0000
  O3     O3        0.753340500373705    0.730902310699888    0.674998719546032  0.0000
  O3     O3        0.163232802242045    0.211424113097654    0.133054173195676  0.0000
  O2     O2        0.339776910849389    0.756819279786404    0.124515477273033  0.0000
  O2     O2        0.850585678265484    0.262593411495454    0.881766856594919  0.0000
  O3     O3        0.650762639933701    0.758115612528663    0.886268888489860  0.0000
  O2     O2        0.846530597678890    0.740187314264955    0.879705036689018  0.0000
  O2     O2        0.651738289629810    0.249824129628625    0.882077405650543  0.0000
  O3     O3        0.149086421100122    0.763891731380257    0.136141929351169  0.0000
  O2     O2        0.353356709458097    0.275789860991002    0.134999190128715  0.0000
  O2     O2        0.637834468807156    0.505470993429487    0.057049731681047  0.0000
  O2     O2        0.868638431101152    0.508653983366882    0.066167495820015  0.0000
  O2     O2        0.370003469646420    0.509001392242230    0.947905417153094  0.0000
  O3     O3        0.130910211608075    0.465132915412953    0.970240930285226  0.0000
  O2     O2        0.752628950937951    0.283677715088696    0.077610135345693  0.0000
  O2     O2        0.753744344374019    0.730861892649850    0.079009332524637  0.0000
  O2     O2        0.255847817273998    0.282913082186333    0.936823073053251  0.0000
  O3     O3        0.248897455503044    0.711460116425188    0.919596276295172  0.0000
