data_c00590.vasp
_audit_creation_method             Generated by GULP
_audit_author_name                 Salvador R. G. Balestra
_symmetry_space_group_name_H-M     'P 1             '
_symmetry_Int_Tables_number        1

loop_
_symmetry_equiv_pos_site_id
_symmetry_equiv_pos_as_xyz
_cell_length_a                       17.2469
_cell_length_b                        7.6796
_cell_length_c                       10.2464
_cell_angle_alpha                   87.8802
_cell_angle_beta                    90.3006
_cell_angle_gamma                   89.3761

loop_
_atom_site_label
_atom_site_type_symbol
_atom_site_fract_x
_atom_site_fract_y
_atom_site_fract_z
_atom_site_charge
  Ge     Ge        0.052090000000021    0.000000000000000    0.372269999999958  0.0000
  Ge     Ge        0.351241124880443    0.681577108204893    0.276030104128829  0.0000
  Ge     Ge        0.846262709930922    0.321027837543455    0.704630126014855  0.0000
  Ge     Ge        0.657242419063389    0.327706388394125    0.701530906805985  0.0000
  Si     Si        0.455748515771755    0.981917812660400    0.363266152857572  0.0000
  Si     Si        0.956453191994681    0.022224154635974    0.636312892181250  0.0000
  Si     Si        0.547974293002510    0.034701698752506    0.623340873230752  0.0000
  Si     Si        0.560269502531732    0.010370504856235    0.116872157672844  0.0000
  Si     Si        0.939718330330539    0.000636884460152    0.129354374138435  0.0000
  Si     Si        0.444235017591581    0.019342388860203    0.878018692940830  0.0000
  Si     Si        0.055239673181444    0.032208737335865    0.895425666620242  0.0000
  Si     Si        0.161058011064916    0.305194744365278    0.268136405132301  0.0000
  Si     Si        0.662213053526090    0.736082028416080    0.708758165505712  0.0000
  Si     Si        0.841550146359094    0.728936916234128    0.711532442431638  0.0000
  Si     Si        0.169390349936533    0.709024319134592    0.277318640779391  0.0000
  Si     Si        0.338755096162284    0.276141320476344    0.264595360068249  0.0000
  Si     Si        0.658546713539532    0.312332626463597    0.007932166203923  0.0000
  Si     Si        0.840812278625175    0.702127767503821    0.018799455492642  0.0000
  Si     Si        0.335672207526374    0.313967015967138    0.956263087745786  0.0000
  Si     Si        0.165995772541779    0.730903926725487    0.972142763433015  0.0000
  Si     Si        0.345638805386196    0.708678791715421    0.963125493643370  0.0000
  Si     Si        0.157498829942894    0.333724314595344    0.963868472905254  0.0000
  Si     Si        0.661411234814332    0.708465215142684    0.015578533789128  0.0000
  Si     Si        0.841952626130269    0.306552965766861    0.011614427478905  0.0000
  O3     O3        0.101255634808821    0.192205199724540    0.349430244144629  0.0000
  O3     O3        0.419460521956283    0.791999127527576    0.362158715650282  0.0000
  O3     O3        0.908333154889150    0.200413968074964    0.611919224820751  0.0000
  O2     O2        0.610258194710712    0.876672206914591    0.628982507243717  0.0000
  O2     O2        0.894572386509418    0.866042400834484    0.634107811419304  0.0000
  O3     O3        0.594794429918342    0.211762082415990    0.607061678066777  0.0000
  O3     O3        0.113006905934088    0.823124481451096    0.361444750810038  0.0000
  O2     O2        0.386483276907354    0.119252578243597    0.332934871306906  0.0000
  O3     O3        0.021813454587172    0.996066794889290    0.531827005458013  0.0000
  O2     O2        0.489102075146832    0.014501095440850    0.505233996325579  0.0000
  O3     O3        0.970509039994940    0.989883355048664    0.275562609570421  0.0000
  O2     O2        0.525295284250945    0.005012225965177    0.260687952383682  0.0000
  O2     O2        0.994664263210163    0.023127033747620    0.779658223950421  0.0000
  O2     O2        0.499230686286291    0.033084341543777    0.755439602847537  0.0000
  O2     O2        0.616114169691161    0.176906281542782    0.105980941313457  0.0000
  O2     O2        0.893826936759651    0.823694174133876    0.103834907274766  0.0000
  O2     O2        0.384016689806458    0.181874662816161    0.870189981631538  0.0000
  O2     O2        0.116131441242091    0.871710378209238    0.887859254399512  0.0000
  O2     O2        0.397739469329970    0.838300310822854    0.874654518255224  0.0000
  O2     O2        0.100345974372672    0.215970838641121    0.880806542418632  0.0000
  O2     O2        0.608586764330848    0.832349027026619    0.100490264688970  0.0000
  O2     O2        0.883022683688875    0.167966059119801    0.111035858276927  0.0000
  O2     O2        0.492150863301705    0.028544744689713    0.011412419036901  0.0000
  O2     O2        0.013168190344774    0.018401340542810    0.034540821098324  0.0000
  O2     O2        0.147119948877977    0.506922157220733    0.297162285280925  0.0000
  O3     O3        0.368325141379562    0.461907518642998    0.306775478564644  0.0000
  O3     O3        0.857192276065293    0.538600179409808    0.661122374806341  0.0000
  O3     O3        0.646281224686436    0.546155340472679    0.659213859142302  0.0000
  O2     O2        0.249285157831608    0.251639630575653    0.306376672625166  0.0000
  O3     O3        0.257749417539075    0.733831478891094    0.319918854138216  0.0000
  O1     O1        0.751563107812381    0.266627914321205    0.680039594254408  0.0000
  O2     O2        0.752040747725251    0.783759942133361    0.686170781969640  0.0000
  O2     O2        0.148539610708906    0.273528462099911    0.114857941425162  0.0000
  O3     O3        0.363555649658717    0.738482014300212    0.113291010001758  0.0000
  O3     O3        0.872558157032896    0.283228305702346    0.867044896243585  0.0000
  O2     O2        0.643322446744148    0.744064156371925    0.862822709418455  0.0000
  O2     O2        0.859167709109159    0.732360161221786    0.866351133135315  0.0000
  O3     O3        0.629192176938389    0.289324659464761    0.862203217136561  0.0000
  O2     O2        0.158672722883916    0.768572463945244    0.125028539676885  0.0000
  O2     O2        0.346199998302971    0.265061352778709    0.108719346976591  0.0000
  O2     O2        0.641386832793968    0.508345679859532    0.054241405887527  0.0000
  O2     O2        0.859424368529461    0.500882569831976    0.059993346248924  0.0000
  O2     O2        0.366118808902050    0.509873482382096    0.927670159158305  0.0000
  O2     O2        0.135026158906622    0.537672263653779    0.942783278849343  0.0000
  O2     O2        0.750209576658381    0.274827882174135    0.009131983573980  0.0000
  O2     O2        0.751052915594181    0.746451973872416    0.046239545232747  0.0000
  O2     O2        0.245391780331550    0.302430083752271    0.917017616065107  0.0000
  O2     O2        0.255352152192061    0.747193478727460    0.931153686963133  0.0000
