data_c00597.vasp
_audit_creation_method             Generated by GULP
_audit_author_name                 Salvador R. G. Balestra
_symmetry_space_group_name_H-M     'P 1             '
_symmetry_Int_Tables_number        1

loop_
_symmetry_equiv_pos_site_id
_symmetry_equiv_pos_as_xyz
_cell_length_a                       17.2255
_cell_length_b                        7.6226
_cell_length_c                       10.2730
_cell_angle_alpha                   88.4173
_cell_angle_beta                    90.9058
_cell_angle_gamma                   89.4825

loop_
_atom_site_label
_atom_site_type_symbol
_atom_site_fract_x
_atom_site_fract_y
_atom_site_fract_z
_atom_site_charge
  Ge     Ge        0.052090000000021    0.000000000000000    0.372269999999958  0.0000
  Ge     Ge        0.353692942495241    0.676848853214079    0.275260626856851  0.0000
  Ge     Ge        0.844898369077298    0.322503721021206    0.704127828536302  0.0000
  Ge     Ge        0.149037290324529    0.339843779634684    0.961884878061219  0.0000
  Si     Si        0.456105551225218    0.983706945440367    0.356317662933759  0.0000
  Si     Si        0.950951697498633    0.015031779266361    0.631568483114340  0.0000
  Si     Si        0.546650398907097    0.019327241079304    0.620993233510079  0.0000
  Si     Si        0.557654588912909    0.003404476682833    0.107138471705740  0.0000
  Si     Si        0.939810535621763    0.004528907973386    0.125211960832162  0.0000
  Si     Si        0.440378931078924    0.015169122215468    0.869901389968343  0.0000
  Si     Si        0.050794288102072    0.028018925897343    0.888345083197766  0.0000
  Si     Si        0.157585553330490    0.305844234115104    0.268189971368167  0.0000
  Si     Si        0.653427273760699    0.710651071200316    0.704990161657281  0.0000
  Si     Si        0.832531028215031    0.733481568555002    0.707569700070726  0.0000
  Si     Si        0.661861994544616    0.306263578838975    0.702769035263342  0.0000
  Si     Si        0.171842215780117    0.713701247283718    0.278107107031661  0.0000
  Si     Si        0.334798271786618    0.269868081180746    0.258174750307764  0.0000
  Si     Si        0.665105122892952    0.296975939045932    0.008008333829562  0.0000
  Si     Si        0.832813364374884    0.717432886780834    0.012385833300050  0.0000
  Si     Si        0.329494598603136    0.307014255018757    0.950544971831976  0.0000
  Si     Si        0.166857642283234    0.744111695375169    0.976174095992207  0.0000
  Si     Si        0.346543267987809    0.701610272264380    0.965633404125583  0.0000
  Si     Si        0.653903001890759    0.695027606500438    0.008632461877250  0.0000
  Si     Si        0.844756240121621    0.316708308217186    0.013911261444646  0.0000
  O3     O3        0.099193218654969    0.197601334682136    0.356919041902063  0.0000
  O3     O3        0.422677536370406    0.788904838557548    0.362405698781922  0.0000
  O3     O3        0.910526481996702    0.205343624652625    0.616332127369065  0.0000
  O2     O2        0.595400560211992    0.837217747027162    0.621930288224717  0.0000
  O2     O2        0.880116736772053    0.876799660224944    0.625596860045800  0.0000
  O2     O2        0.605261209608073    0.182466672569091    0.622149080756471  0.0000
  O3     O3        0.117686240522306    0.829177119969768    0.365664857502661  0.0000
  O2     O2        0.382323707797569    0.109728276420522    0.324467528321566  0.0000
  O3     O3        0.014565447712510    0.985076666177130    0.525984108789672  0.0000
  O2     O2        0.494467944814388    0.034971342779103    0.492043558908870  0.0000
  O3     O3        0.973162372021999    0.982321834075155    0.269073804296773  0.0000
  O2     O2        0.521648547056109    0.008480342343981    0.248457299874721  0.0000
  O2     O2        0.993053549473518    0.986325035740575    0.771603801684586  0.0000
  O2     O2        0.490136708075649    0.027359318643151    0.741799784821098  0.0000
  O2     O2        0.620891323518183    0.156577673912598    0.096846747513469  0.0000
  O2     O2        0.878748970743636    0.849471727142499    0.102165782229762  0.0000
  O2     O2        0.377479913481706    0.172624103628148    0.864875219519752  0.0000
  O2     O2        0.125968382017059    0.898722065712576    0.890278360792462  0.0000
  O2     O2        0.397820748090737    0.827848611507220    0.874047836549356  0.0000
  O3     O3        0.081297891252865    0.225135921370098    0.873549912606137  0.0000
  O2     O2        0.597531662301115    0.813124868339525    0.092623707927191  0.0000
  O2     O2        0.898167578123660    0.194906322869024    0.109120967642737  0.0000
  O2     O2        0.492736722403798    0.040395327915819    0.997532706918386  0.0000
  O2     O2        0.009753997712793    0.990110427196971    0.025354297617895  0.0000
  O2     O2        0.143012813705495    0.513036971734228    0.283070738304554  0.0000
  O3     O3        0.371654382043469    0.454289407795035    0.293652579777052  0.0000
  O3     O3        0.863274297629054    0.541840336289924    0.676906567878053  0.0000
  O2     O2        0.635404946041565    0.508498963246861    0.676151557969342  0.0000
  O2     O2        0.246744378565127    0.259579284227782    0.309617291804789  0.0000
  O3     O3        0.260621566877185    0.721045808185699    0.325517771530698  0.0000
  O3     O3        0.749773544078068    0.280369096036188    0.660292734444354  0.0000
  O2     O2        0.741811009698886    0.751786404456091    0.666497826439246  0.0000
  O3     O3        0.142586528267408    0.257041136495054    0.119313521289862  0.0000
  O3     O3        0.364400384748151    0.743003784008474    0.114362148189811  0.0000
  O3     O3        0.860263821084057    0.266520637270169    0.866768528360393  0.0000
  O2     O2        0.641427846806673    0.748135968344604    0.856999538829987  0.0000
  O2     O2        0.841414454679828    0.770461545737289    0.861051710959538  0.0000
  O2     O2        0.655714093916270    0.255175810344696    0.855988695264429  0.0000
  O2     O2        0.165173818872829    0.788010742745911    0.129109602935449  0.0000
  O2     O2        0.331317381861264    0.249380291228895    0.102598969497545  0.0000
  O2     O2        0.632010538359503    0.491790054946994    0.034174206342634  0.0000
  O2     O2        0.866038570411004    0.519975473012463    0.036652980395565  0.0000
  O2     O2        0.367487050358954    0.500074834413004    0.935170899187686  0.0000
  O3     O3        0.125752895043590    0.560224249619856    0.951725849371302  0.0000
  O2     O2        0.755194125494004    0.285752494158463    0.048243943873768  0.0000
  O2     O2        0.742753973195130    0.726742312198197    0.051105960648830  0.0000
  O3     O3        0.241174816347541    0.310745692478486    0.902063800008468  0.0000
  O2     O2        0.255772411137899    0.732515969604226    0.932263462643603  0.0000
