data_c00551.vasp
_audit_creation_method             Generated by GULP
_audit_author_name                 Salvador R. G. Balestra
_symmetry_space_group_name_H-M     'P 1             '
_symmetry_Int_Tables_number        1

loop_
_symmetry_equiv_pos_site_id
_symmetry_equiv_pos_as_xyz
_cell_length_a                       17.1792
_cell_length_b                        7.6299
_cell_length_c                       10.2334
_cell_angle_alpha                   90.5293
_cell_angle_beta                    91.3597
_cell_angle_gamma                   89.5041

loop_
_atom_site_label
_atom_site_type_symbol
_atom_site_fract_x
_atom_site_fract_y
_atom_site_fract_z
_atom_site_charge
  Ge     Ge        0.052090000000021    0.000000000000000    0.372269999999958  0.0000
  Ge     Ge        0.158234975731485    0.303282921076481    0.284024518716421  0.0000
  Ge     Ge        0.178533452249119    0.725574845119761    0.280994100701462  0.0000
  Ge     Ge        0.174867099480390    0.703025509607778    0.967101614138018  0.0000
  Si     Si        0.460648004118168    0.968649450012011    0.371142361636587  0.0000
  Si     Si        0.944764516542036    0.980817120980804    0.618029150756914  0.0000
  Si     Si        0.549376854446889    0.975365720721776    0.643809499640401  0.0000
  Si     Si        0.567480636458978    0.982864427149538    0.132547201592629  0.0000
  Si     Si        0.956699127606515    0.972186580611971    0.100179162100477  0.0000
  Si     Si        0.448054116545754    0.962899389069842    0.896882401053058  0.0000
  Si     Si        0.061713840947633    0.986786363662688    0.855664534753615  0.0000
  Si     Si        0.356520589375555    0.658780084049907    0.280971655460858  0.0000
  Si     Si        0.841772028156804    0.283232091486024    0.718309998768607  0.0000
  Si     Si        0.658298994160707    0.673625250789917    0.727747566531956  0.0000
  Si     Si        0.837067660329371    0.685127769543580    0.722097295796588  0.0000
  Si     Si        0.662366959592805    0.270218254354988    0.726770527395267  0.0000
  Si     Si        0.340980088510472    0.259523651679569    0.285827488733764  0.0000
  Si     Si        0.673309267413295    0.270740122900430    0.031118110179238  0.0000
  Si     Si        0.843007679524433    0.682543503946528    0.028260738439605  0.0000
  Si     Si        0.334919236791407    0.253018413172359    0.978421025271364  0.0000
  Si     Si        0.352990480263431    0.644458027921144    0.970537742425937  0.0000
  Si     Si        0.155173187692088    0.291903186567909    0.978298043681257  0.0000
  Si     Si        0.663991817145768    0.670367285931427    0.033144721519055  0.0000
  Si     Si        0.853256690770122    0.284513593508554    0.023407591609352  0.0000
  O1     O1        0.091695465762448    0.203896088026019    0.379848919107705  0.0000
  O2     O2        0.425016858372572    0.777516436157938    0.342194310211677  0.0000
  O2     O2        0.894630373111942    0.159268683790819    0.629971640928588  0.0000
  O2     O2        0.599937311588711    0.796680415016105    0.645804115918224  0.0000
  O2     O2        0.890712933363202    0.813687141833836    0.642366941069291  0.0000
  O2     O2        0.606805085567525    0.141709589219090    0.643639304254279  0.0000
  O1     O1        0.130008554533988    0.859343491746058    0.385726306059947  0.0000
  O2     O2        0.394717282939719    0.118614739823445    0.360742277917005  0.0000
  O3     O3        0.975797583242973    0.967070138309878    0.473616779208848  0.0000
  O2     O2        0.495372013250307    0.975673071747359    0.516240142568215  0.0000
  O3     O3        0.017400266622306    0.953370759684280    0.215242613842120  0.0000
  O2     O2        0.530452479991174    0.001392406810474    0.273281686487426  0.0000
  O2     O2        0.020698853015247    0.988454086848712    0.712989784086027  0.0000
  O2     O2        0.493433781725235    0.987490675565220    0.765541937967260  0.0000
  O2     O2        0.629933351529937    0.137175531786801    0.122721134191401  0.0000
  O2     O2        0.893104365672972    0.818677538325087    0.112882704413856  0.0000
  O2     O2        0.375423196049402    0.098281165903790    0.896835420718888  0.0000
  O3     O3        0.126172941435597    0.835575758380689    0.856604671671143  0.0000
  O2     O2        0.418206542214078    0.763331126396148    0.905066179679593  0.0000
  O2     O2        0.099621765817510    0.177303033614629    0.882118126057768  0.0000
  O2     O2        0.609437781700327    0.793714410325235    0.119695437746508  0.0000
  O2     O2        0.912474845267626    0.161232219128161    0.104626126553921  0.0000
  O2     O2        0.501758288053826    0.009618673664907    0.021615311344388  0.0000
  O2     O2        0.998640277052463    0.941859307362918    0.963292868322630  0.0000
  O1     O1        0.139680485792760    0.520312818419919    0.288745822621570  0.0000
  O2     O2        0.375059726138446    0.454668361482459    0.311438388987243  0.0000
  O2     O2        0.860825992924467    0.485050083460396    0.687409632286502  0.0000
  O2     O2        0.637566177514428    0.471079279339573    0.699320348970470  0.0000
  O3     O3        0.253421650059697    0.252417839177514    0.333966925023130  0.0000
  O3     O3        0.274538628870421    0.713741999956943    0.337968619987952  0.0000
  O2     O2        0.751585195916336    0.242286644703295    0.685527412140687  0.0000
  O2     O2        0.746130486621634    0.714391157581110    0.684921754194336  0.0000
  O3     O3        0.145647034673429    0.224891355837669    0.124715899789620  0.0000
  O2     O2        0.348077802216331    0.686105500385749    0.124992989841287  0.0000
  O2     O2        0.861761852817767    0.243323938341431    0.869716886074265  0.0000
  O2     O2        0.648883008533342    0.716173569963766    0.881202737561155  0.0000
  O2     O2        0.849584556617384    0.723703489543226    0.875257950249733  0.0000
  O2     O2        0.655627730739010    0.224820985638649    0.879498517212733  0.0000
  O1     O1        0.173170670941434    0.791950390200102    0.120722898705820  0.0000
  O2     O2        0.340883709270117    0.212120220568758    0.131978821517622  0.0000
  O2     O2        0.643916579425760    0.468340783768748    0.060917830472405  0.0000
  O2     O2        0.874630480510378    0.485840881195821    0.055893162673204  0.0000
  O2     O2        0.375375253230569    0.439349864373797    0.948271578960199  0.0000
  O3     O3        0.134007662479954    0.495589979297860    0.969010014400534  0.0000
  O2     O2        0.764891099465242    0.250197562607299    0.063547246610878  0.0000
  O2     O2        0.754011633368642    0.702875095290269    0.071173384585854  0.0000
  O2     O2        0.244637381196924    0.263373052167143    0.934674385734592  0.0000
  O3     O3        0.268711468397353    0.684711388207992    0.910109697555038  0.0000
