data_c00584.vasp
_audit_creation_method             Generated by GULP
_audit_author_name                 Salvador R. G. Balestra
_symmetry_space_group_name_H-M     'P 1             '
_symmetry_Int_Tables_number        1

loop_
_symmetry_equiv_pos_site_id
_symmetry_equiv_pos_as_xyz
_cell_length_a                       17.1502
_cell_length_b                        7.5968
_cell_length_c                       10.3080
_cell_angle_alpha                   91.0420
_cell_angle_beta                    90.6215
_cell_angle_gamma                   89.4583

loop_
_atom_site_label
_atom_site_type_symbol
_atom_site_fract_x
_atom_site_fract_y
_atom_site_fract_z
_atom_site_charge
  Ge     Ge        0.052090000000021    0.000000000000000    0.372269999999958  0.0000
  Ge     Ge        0.154939810190083    0.315538272354012    0.291221497947414  0.0000
  Ge     Ge        0.352303850316575    0.649926550374005    0.969658698102448  0.0000
  Ge     Ge        0.851746736904545    0.308546240159858    0.034018763367242  0.0000
  Si     Si        0.455471884498007    0.981537465788150    0.371646212535142  0.0000
  Si     Si        0.948766335314928    0.983208039030432    0.628847725582721  0.0000
  Si     Si        0.550331783043892    0.982434244257428    0.636598780394401  0.0000
  Si     Si        0.557304234808557    0.989583440878979    0.120807784904928  0.0000
  Si     Si        0.948760902801539    0.991396335843994    0.114374889510597  0.0000
  Si     Si        0.444065697995272    0.966516026665752    0.880536152077613  0.0000
  Si     Si        0.057026163756750    0.985013363192062    0.873827645758380  0.0000
  Si     Si        0.355825950339546    0.671798077384967    0.276692543497917  0.0000
  Si     Si        0.846127261099800    0.291572259412800    0.724201970911907  0.0000
  Si     Si        0.654881338499097    0.675387391006583    0.724289607676013  0.0000
  Si     Si        0.833575658091638    0.697310175388583    0.724705172827699  0.0000
  Si     Si        0.667104622229202    0.270152204321702    0.726284357346562  0.0000
  Si     Si        0.175747003458757    0.723369891507725    0.278655291627761  0.0000
  Si     Si        0.337869921891151    0.269408205816743    0.286739862404207  0.0000
  Si     Si        0.668584709921737    0.276824698207573    0.030239144559360  0.0000
  Si     Si        0.833434632540904    0.711489512528450    0.029025101144245  0.0000
  Si     Si        0.331162139975486    0.247230267976567    0.982381652744537  0.0000
  Si     Si        0.169370558710416    0.696882692046289    0.975702443157099  0.0000
  Si     Si        0.151237574342597    0.295866468882195    0.985100375269241  0.0000
  Si     Si        0.654106000262042    0.674935210114005    0.026445083939933  0.0000
  O1     O1        0.087695914743741    0.208538522535566    0.381440282472510  0.0000
  O2     O2        0.413735044290872    0.792270444762501    0.363376389906524  0.0000
  O2     O2        0.904227973250667    0.171341786402118    0.637904701604662  0.0000
  O2     O2        0.594179202984774    0.793539261268204    0.643629729439456  0.0000
  O2     O2        0.886919150955344    0.827276995961992    0.645348504460072  0.0000
  O2     O2        0.614071559135098    0.136602060765346    0.643642476770480  0.0000
  O3     O3        0.135876008274718    0.870247536600718    0.367051735804688  0.0000
  O2     O2        0.390680601829399    0.136432258790201    0.369606390798380  0.0000
  O3     O3        0.985928291140268    0.957830206689968    0.489727863571840  0.0000
  O2     O2        0.503950591019872    0.994249506513060    0.503383210444232  0.0000
  O3     O3        0.004412305430313    0.942114656406764    0.229848666137657  0.0000
  O2     O2        0.515392033979042    0.008335516127094    0.256562981526356  0.0000
  O2     O2        0.020519132925061    0.973485474256255    0.730547701272414  0.0000
  O2     O2        0.488129992905936    0.010893666532929    0.750030416356557  0.0000
  O2     O2        0.621385100652432    0.141500610294507    0.115251580838127  0.0000
  O2     O2        0.871697569027779    0.869612200455655    0.110891626368913  0.0000
  O2     O2        0.366444278218228    0.087786265106797    0.896587943020055  0.0000
  O2     O2        0.121267778931341    0.830357251997554    0.885924918968647  0.0000
  O3     O3        0.416513267216563    0.766257363390938    0.877327596822973  0.0000
  O2     O2        0.095386937674655    0.177373020245148    0.893290834249178  0.0000
  O2     O2        0.597603973767043    0.797206564400641    0.112013798195060  0.0000
  O3     O3        0.917784302444738    0.191222528257175    0.125602685496438  0.0000
  O2     O2        0.497558561893593    0.016507302829236    0.003420707680705  0.0000
  O2     O2        0.990383521905743    0.955390685547607    0.977424351214033  0.0000
  O3     O3        0.136544546357771    0.537053247907728    0.305104493235147  0.0000
  O2     O2        0.373427081161114    0.465722906788560    0.300533878429972  0.0000
  O2     O2        0.862828958131653    0.497136976002909    0.698979731053072  0.0000
  O2     O2        0.637526300599584    0.469149251207266    0.700113209206035  0.0000
  O3     O3        0.250143141143349    0.268494013141362    0.336967079121103  0.0000
  O2     O2        0.266933580817330    0.711944351832787    0.316877797898851  0.0000
  O2     O2        0.756846887605980    0.249155537123626    0.683300544096903  0.0000
  O2     O2        0.743062156724211    0.717320586000230    0.681135780090671  0.0000
  O3     O3        0.138633639545552    0.242463825290176    0.132467934527489  0.0000
  O3     O3        0.368292210179492    0.718307913611924    0.128053976978090  0.0000
  O3     O3        0.861757477890400    0.247680641794387    0.872936375100645  0.0000
  O2     O2        0.643016897441919    0.724374621930300    0.875759195784077  0.0000
  O2     O2        0.839906201545065    0.746229233471617    0.876027618900271  0.0000
  O2     O2        0.663162929491588    0.224421779351652    0.877921035198972  0.0000
  O2     O2        0.168965970378673    0.765359040157661    0.125068630527716  0.0000
  O2     O2        0.337507294082825    0.208834753072606    0.135682493049758  0.0000
  O2     O2        0.631892120735996    0.472791672040387    0.049783233350509  0.0000
  O3     O3        0.873981767785395    0.527038416860568    0.060122028109665  0.0000
  O3     O3        0.373085308098127    0.428534076314012    0.951506536435314  0.0000
  O2     O2        0.130722580210774    0.502487795300247    0.966828703940803  0.0000
  O3     O3        0.756890548494667    0.272636785259909    0.078459193298283  0.0000
  O2     O2        0.743215533443600    0.704696544656041    0.069392065362698  0.0000
  O2     O2        0.240421924299951    0.263826900174965    0.943701190328946  0.0000
  O3     O3        0.256667213268036    0.687680169361086    0.924833726526694  0.0000
