data_c00578.vasp
_audit_creation_method             Generated by GULP
_audit_author_name                 Salvador R. G. Balestra
_symmetry_space_group_name_H-M     'P 1             '
_symmetry_Int_Tables_number        1

loop_
_symmetry_equiv_pos_site_id
_symmetry_equiv_pos_as_xyz
_cell_length_a                       17.2556
_cell_length_b                        7.6609
_cell_length_c                       10.1666
_cell_angle_alpha                   91.3028
_cell_angle_beta                    90.9103
_cell_angle_gamma                   90.0894

loop_
_atom_site_label
_atom_site_type_symbol
_atom_site_fract_x
_atom_site_fract_y
_atom_site_fract_z
_atom_site_charge
  Ge     Ge        0.052090000000021    0.000000000000000    0.372269999999958  0.0000
  Ge     Ge        0.167661354691382    0.294209071889139    0.297352456525385  0.0000
  Ge     Ge        0.156646151258328    0.674508380734445    0.970208420875758  0.0000
  Ge     Ge        0.342564849906678    0.672453585094431    0.960712659170587  0.0000
  Si     Si        0.456200322384373    0.005795031095429    0.378041204019800  0.0000
  Si     Si        0.945758930781320    0.995263091387369    0.623439891860964  0.0000
  Si     Si        0.552311359015599    0.001404859642616    0.642444838590436  0.0000
  Si     Si        0.560161485214387    0.000340614454134    0.131410958801013  0.0000
  Si     Si        0.947684497658422    0.001945351630905    0.107226597847632  0.0000
  Si     Si        0.445334547807998    0.977821655827781    0.888619776611149  0.0000
  Si     Si        0.056100660173221    0.980158800250233    0.864514813337876  0.0000
  Si     Si        0.344964026751994    0.706624680009194    0.274827661375649  0.0000
  Si     Si        0.838945312677995    0.296592002806847    0.722172013000317  0.0000
  Si     Si        0.661588255086078    0.703048540347289    0.726361850616262  0.0000
  Si     Si        0.840477223060109    0.696940068549971    0.727234788322770  0.0000
  Si     Si        0.660476817044431    0.301665716779705    0.719717100316338  0.0000
  Si     Si        0.165687497244067    0.706150795558476    0.280146365447131  0.0000
  Si     Si        0.349110962802905    0.304170636997293    0.292130948289114  0.0000
  Si     Si        0.660498138025256    0.303344949904151    0.027361993537685  0.0000
  Si     Si        0.843671433381263    0.694237982771219    0.035209202422760  0.0000
  Si     Si        0.341238157431483    0.277275126580620    0.985453648324153  0.0000
  Si     Si        0.160491488485752    0.270941685916711    0.989900532936170  0.0000
  Si     Si        0.664750643781326    0.701699038953649    0.033651227739473  0.0000
  Si     Si        0.839281227325759    0.297844444418982    0.030613026911843  0.0000
  O1     O1        0.109303176640947    0.180640987554541    0.398311371105018  0.0000
  O2     O2        0.398904737783848    0.842073739251747    0.356394784922565  0.0000
  O2     O2        0.893212054571681    0.167998151217151    0.639224273009421  0.0000
  O2     O2        0.606545247104372    0.829882588715805    0.644257776354849  0.0000
  O2     O2        0.895285423412318    0.822503030038175    0.647406894700068  0.0000
  O2     O2        0.605833961568487    0.173690256942653    0.632411735914733  0.0000
  O3     O3        0.113803658632335    0.823488315379874    0.375238847250746  0.0000
  O2     O2        0.409616097153855    0.187990585198518    0.373856244662320  0.0000
  O3     O3        0.975833832724760    0.983837341436016    0.476994050292930  0.0000
  O2     O2        0.493733587987222    0.987432916049213    0.521073633730241  0.0000
  O3     O3        0.011925938867195    0.017702140279123    0.216748379738944  0.0000
  O2     O2        0.525838867141993    0.006235902224578    0.275821292883605  0.0000
  O2     O2        0.021714616570556    0.005695084686879    0.717943909719970  0.0000
  O2     O2        0.502449379225551    0.020037333603537    0.772805065773832  0.0000
  O2     O2        0.606645845265624    0.179418038512922    0.110596286601695  0.0000
  O2     O2        0.898591040688104    0.822577655502085    0.121518258684525  0.0000
  O2     O2        0.378486879033442    0.124426616481159    0.897805881714039  0.0000
  O3     O3        0.093543053397355    0.790675233615061    0.872837592325130  0.0000
  O3     O3        0.403265216644651    0.794480107848571    0.865716510001346  0.0000
  O2     O2        0.121824098509658    0.127016669869755    0.891967768999429  0.0000
  O2     O2        0.616589825797120    0.833799619328861    0.123596624524974  0.0000
  O2     O2        0.889597077849271    0.166934753018178    0.116794085254572  0.0000
  O2     O2        0.491359531802370    0.977367262374976    0.026561536634233  0.0000
  O2     O2        0.986401375842030    0.003798337062578    0.965050288217877  0.0000
  O3     O3        0.139382457329192    0.508130391193738    0.295630457636591  0.0000
  O2     O2        0.372933225473610    0.508592120402858    0.302162758134786  0.0000
  O2     O2        0.861727942316013    0.496197175373938    0.691754097129103  0.0000
  O2     O2        0.638686818629548    0.502478007222240    0.692421432527043  0.0000
  O3     O3        0.263741960216293    0.278242614191124    0.346478742892496  0.0000
  O2     O2        0.256387758113023    0.727077533866100    0.321934557805797  0.0000
  O2     O2        0.749322767276186    0.265067067273273    0.681276874319302  0.0000
  O2     O2        0.750985740675876    0.735046305683128    0.689582110194706  0.0000
  O3     O3        0.155914838203055    0.208341364758162    0.138477998048790  0.0000
  O3     O3        0.347964644555256    0.747349662261037    0.122315954014850  0.0000
  O2     O2        0.850402046299837    0.258789878489001    0.876011099227948  0.0000
  O2     O2        0.650291338249008    0.745342285911410    0.880906657667206  0.0000
  O2     O2        0.854514433181236    0.733328484826579    0.881860348166411  0.0000
  O2     O2        0.648605679279528    0.260606483848834    0.872821456116734  0.0000
  O3     O3        0.155024117682453    0.760630939529581    0.129082653315424  0.0000
  O2     O2        0.351269286561152    0.238490375344996    0.140098468062828  0.0000
  O2     O2        0.637564996441319    0.503919360237302    0.059403620498867  0.0000
  O2     O2        0.866968200067311    0.495299044270811    0.065707762294933  0.0000
  O3     O3        0.377861766573693    0.461551738629893    0.951796996263336  0.0000
  O3     O3        0.123481213256507    0.460609310249086    0.972229228123279  0.0000
  O2     O2        0.749817758157725    0.272401219378240    0.067592609288307  0.0000
  O2     O2        0.754681278834948    0.725975427230524    0.072576958541273  0.0000
  O2     O2        0.250320559256725    0.293311650700460    0.950508636606309  0.0000
  O1     O1        0.248261988295345    0.688693579735118    0.909423504013133  0.0000
