data_c00541.vasp
_audit_creation_method             Generated by GULP
_audit_author_name                 Salvador R. G. Balestra
_symmetry_space_group_name_H-M     'P 1             '
_symmetry_Int_Tables_number        1

loop_
_symmetry_equiv_pos_site_id
_symmetry_equiv_pos_as_xyz
_cell_length_a                       17.2287
_cell_length_b                        7.6105
_cell_length_c                       10.2499
_cell_angle_alpha                   89.4242
_cell_angle_beta                    91.4759
_cell_angle_gamma                   89.4429

loop_
_atom_site_label
_atom_site_type_symbol
_atom_site_fract_x
_atom_site_fract_y
_atom_site_fract_z
_atom_site_charge
  Ge     Ge        0.052090000000021    0.000000000000000    0.372269999999958  0.0000
  Ge     Ge        0.173797250211829    0.283477943892511    0.290918205190847  0.0000
  Ge     Ge        0.653581099538868    0.324781083336811    0.716931708084119  0.0000
  Ge     Ge        0.855700264171680    0.666321579683192    0.041588332388836  0.0000
  Si     Si        0.458193739227029    0.001401942305865    0.369373871538234  0.0000
  Si     Si        0.949102886822097    0.997810914244552    0.626998332087608  0.0000
  Si     Si        0.548615764700878    0.019438377669322    0.636474391505750  0.0000
  Si     Si        0.562176196174847    0.994112264261630    0.120916146514194  0.0000
  Si     Si        0.952380822517327    0.985311620578409    0.108037285850136  0.0000
  Si     Si        0.444565468495532    0.000225139385468    0.882805984880088  0.0000
  Si     Si        0.060728123497109    0.997926055049341    0.868554074201818  0.0000
  Si     Si        0.341735226983443    0.717362020192593    0.280492013629073  0.0000
  Si     Si        0.834042540490261    0.292546927605219    0.716737578193959  0.0000
  Si     Si        0.669978422525657    0.733457045557530    0.735756665951859  0.0000
  Si     Si        0.847315118205384    0.695689995038399    0.730413746555685  0.0000
  Si     Si        0.161122754320624    0.697557421032616    0.281346778611342  0.0000
  Si     Si        0.354827432918764    0.313638956528200    0.289587779266517  0.0000
  Si     Si        0.655680424729137    0.307784658822564    0.027442749570358  0.0000
  Si     Si        0.347511295243955    0.311714179290188    0.982439684946151  0.0000
  Si     Si        0.157631037120259    0.689078433558004    0.980137902409069  0.0000
  Si     Si        0.337284896768836    0.710240332286979    0.976541970249298  0.0000
  Si     Si        0.168924639015519    0.282947058996267    0.982269050420569  0.0000
  Si     Si        0.674850139217716    0.703796797522437    0.042627048086655  0.0000
  Si     Si        0.833570273333393    0.266032321566977    0.024533333287476  0.0000
  O1     O1        0.119385383958824    0.161367871485859    0.392338769558925  0.0000
  O2     O2        0.391038975628743    0.855393705483704    0.363749322357369  0.0000
  O2     O2        0.891523815872033    0.163622182810655    0.642430988648602  0.0000
  O2     O2        0.621445883718915    0.889688453343960    0.666793463691377  0.0000
  O2     O2        0.904320467861665    0.815957095457016    0.647590834704129  0.0000
  O3     O3        0.583905045758707    0.212179798587329    0.629323778904449  0.0000
  O3     O3        0.104879883561456    0.806404334265714    0.370535863254495  0.0000
  O2     O2        0.419277343271392    0.195552727363152    0.366728454804588  0.0000
  O3     O3        0.979502011016691    0.998104294684688    0.482225148366018  0.0000
  O2     O2        0.508075210624838    0.970350278761367    0.500309128553090  0.0000
  O3     O3        0.007435280106864    0.046730477090426    0.222975157603298  0.0000
  O2     O2        0.515033991730731    0.978065476841277    0.250911195268485  0.0000
  O2     O2        0.024638849248226    0.011303262921005    0.723010546689291  0.0000
  O2     O2        0.483214482587534    0.999763589612768    0.743838927147771  0.0000
  O2     O2        0.600631304648966    0.186161147821122    0.113987450933584  0.0000
  O3     O3        0.924554435799107    0.785656426977673    0.126969677708206  0.0000
  O2     O2        0.404286687518177    0.189602068228881    0.901528462419042  0.0000
  O2     O2        0.102589631056909    0.807445269312241    0.885482952580384  0.0000
  O2     O2        0.380682773429957    0.846849367589700    0.884791294136908  0.0000
  O2     O2        0.121400891904526    0.156315765686178    0.885545733058366  0.0000
  O2     O2        0.627617442727887    0.842255371713594    0.127014192374029  0.0000
  O2     O2        0.873191047360576    0.101722752917494    0.099205137838157  0.0000
  O2     O2        0.507856626257501    0.959040673351025    0.995332127211014  0.0000
  O2     O2        0.993003135862715    0.017537587394224    0.970461576260451  0.0000
  O3     O3        0.142782655166468    0.496803252561432    0.304109403309194  0.0000
  O2     O2        0.371181172945599    0.519658297588778    0.314071457856743  0.0000
  O2     O2        0.865059444313077    0.491349651207733    0.700267034438755  0.0000
  O3     O3        0.634140389610480    0.546857584565542    0.700951265178821  0.0000
  O3     O3        0.270483620506540    0.265999096949827    0.337637463417652  0.0000
  O2     O2        0.251536845692918    0.737682594052540    0.315860204951691  0.0000
  O3     O3        0.746257064015471    0.281807489577218    0.663035745988572  0.0000
  O2     O2        0.758393058450363    0.740799404785452    0.686989307175898  0.0000
  O3     O3        0.162119549135301    0.217821018158160    0.129918080517778  0.0000
  O2     O2        0.351604807866550    0.759758939720635    0.127530337573296  0.0000
  O2     O2        0.832448788919664    0.240542856769014    0.868915352798779  0.0000
  O2     O2        0.673418932850534    0.762012646338592    0.891132938018691  0.0000
  O3     O3        0.861929514399288    0.734243430659558    0.881286940127952  0.0000
  O3     O3        0.642808053613663    0.259777463777995    0.877344613163241  0.0000
  O2     O2        0.144323982207065    0.749824676169214    0.128611142872207  0.0000
  O2     O2        0.359047067600097    0.271251017962006    0.135847970206637  0.0000
  O2     O2        0.635319765098093    0.511778209537493    0.053928235305727  0.0000
  O3     O3        0.877141031864459    0.445251192527083    0.059338898354798  0.0000
  O2     O2        0.368808827607339    0.513490016962647    0.950799744895434  0.0000
  O2     O2        0.136696600041420    0.483613550629924    0.966158444150155  0.0000
  O2     O2        0.745264804833532    0.275219950207955    0.070940694572136  0.0000
  O3     O3        0.762586907540069    0.698072303440006    0.095411779027666  0.0000
  O2     O2        0.258571196383981    0.275772158526586    0.940746459007737  0.0000
  O2     O2        0.246072720206997    0.720607866577027    0.941154295923113  0.0000
