data_c00539.vasp
_audit_creation_method             Generated by GULP
_audit_author_name                 Salvador R. G. Balestra
_symmetry_space_group_name_H-M     'P 1             '
_symmetry_Int_Tables_number        1

loop_
_symmetry_equiv_pos_site_id
_symmetry_equiv_pos_as_xyz
_cell_length_a                       17.2456
_cell_length_b                        7.6479
_cell_length_c                       10.2626
_cell_angle_alpha                   90.6537
_cell_angle_beta                    90.9418
_cell_angle_gamma                   90.1511

loop_
_atom_site_label
_atom_site_type_symbol
_atom_site_fract_x
_atom_site_fract_y
_atom_site_fract_z
_atom_site_charge
  Ge     Ge        0.052090000000021    0.000000000000000    0.372269999999958  0.0000
  Ge     Ge        0.171292417417865    0.292050808192046    0.295283279059647  0.0000
  Ge     Ge        0.659056001757158    0.304347602348736    0.716950989993295  0.0000
  Ge     Ge        0.358297570743743    0.322551191713755    0.293234565455986  0.0000
  Si     Si        0.459964160116110    0.011875178064076    0.374848691110142  0.0000
  Si     Si        0.952448776559899    0.990223705243013    0.630681426834754  0.0000
  Si     Si        0.551327543571296    0.998214190839640    0.637306938417292  0.0000
  Si     Si        0.562562669518924    0.996906129959078    0.126067445931896  0.0000
  Si     Si        0.949549945992382    0.995302556479605    0.106751432704822  0.0000
  Si     Si        0.445500797766019    0.993749808980945    0.887071065134942  0.0000
  Si     Si        0.061876539102377    0.986534274160186    0.871196414635528  0.0000
  Si     Si        0.343050122706642    0.727090652460948    0.275980181538931  0.0000
  Si     Si        0.840060348340324    0.288099435195436    0.721959084339929  0.0000
  Si     Si        0.668306508367830    0.714034545037819    0.727703401838835  0.0000
  Si     Si        0.847078726344213    0.689740215678572    0.730194005662580  0.0000
  Si     Si        0.162336621944427    0.700443349850104    0.280282517160277  0.0000
  Si     Si        0.659267587403398    0.304525750357727    0.027882883680023  0.0000
  Si     Si        0.849227355077213    0.682674594784025    0.035090298925613  0.0000
  Si     Si        0.348766417437253    0.304140885003329    0.980952895677939  0.0000
  Si     Si        0.158962571516340    0.682090148662135    0.978951841979466  0.0000
  Si     Si        0.337652920531588    0.701515402400313    0.971018407451872  0.0000
  Si     Si        0.168986420946626    0.278285820003302    0.986460968254099  0.0000
  Si     Si        0.670522630915022    0.704259534480794    0.032205218783438  0.0000
  Si     Si        0.837234647323030    0.287519025034507    0.029516025377498  0.0000
  O1     O1        0.113676150820083    0.172952222182724    0.393846413875637  0.0000
  O2     O2        0.385738943034677    0.886702973430328    0.349012163279946  0.0000
  O2     O2        0.899537687219917    0.160914412050925    0.650779349128154  0.0000
  O2     O2        0.620106757229600    0.856766245908628    0.648518067020019  0.0000
  O2     O2        0.903580672743731    0.813861898661421    0.651643490165469  0.0000
  O3     O3        0.592093184295607    0.185129233114749    0.627665599593686  0.0000
  O3     O3        0.110218705028978    0.817356672193513    0.371550563720933  0.0000
  O3     O3        0.427509703258387    0.206913107498186    0.378969538888545  0.0000
  O3     O3        0.980115870150672    0.987758760859751    0.484110277904011  0.0000
  O2     O2        0.499823099628585    0.958210379728436    0.509922489351518  0.0000
  O3     O3        0.009331556854605    0.026296728619621    0.220903011280491  0.0000
  O2     O2        0.523919969167586    0.987310324054404    0.265084844347786  0.0000
  O2     O2        0.028695200501368    0.996066540467308    0.724127280182282  0.0000
  O2     O2        0.495168999273966    0.986328401155844    0.758851210410116  0.0000
  O2     O2        0.603843894255900    0.185351858366470    0.114496811571225  0.0000
  O2     O2        0.906285088790524    0.807453978044787    0.119681405363714  0.0000
  O2     O2        0.401495061749687    0.179313029871934    0.891912562439862  0.0000
  O2     O2        0.103152264157970    0.798253382244276    0.888178717532067  0.0000
  O2     O2        0.383674854188682    0.834729320526828    0.880703302206035  0.0000
  O2     O2        0.121842445603155    0.146399296360160    0.891449451941372  0.0000
  O2     O2        0.624547143349290    0.840237494149327    0.120873688640942  0.0000
  O2     O2        0.885418543309174    0.148270489324970    0.111359290364230  0.0000
  O2     O2        0.499196346970804    0.967430550278330    0.013237538778812  0.0000
  O2     O2        0.991061490804380    0.006684823879605    0.968307749625399  0.0000
  O3     O3        0.138658038647108    0.503388754361565    0.303060818995895  0.0000
  O3     O3        0.379188956235453    0.542658657779789    0.313515159098469  0.0000
  O2     O2        0.866171608218488    0.488199804068812    0.696332288974154  0.0000
  O3     O3        0.638401747423410    0.521903810482804    0.693421529911180  0.0000
  O1     O1        0.266532240450299    0.279760556464935    0.343421660524575  0.0000
  O2     O2        0.253149320326642    0.728580768387928    0.316400937628446  0.0000
  O3     O3        0.752941916049970    0.260792941101216    0.670101353677055  0.0000
  O2     O2        0.758470662693640    0.730729778181177    0.689311974085704  0.0000
  O3     O3        0.162144568831637    0.219672870134124    0.134295717675061  0.0000
  O2     O2        0.349103276552966    0.756459234971200    0.121397669911190  0.0000
  O2     O2        0.840974099057583    0.249403186968353    0.875715698709418  0.0000
  O2     O2        0.660219977600421    0.754459857249704    0.881415621746097  0.0000
  O2     O2        0.859511056466741    0.726647748227142    0.883495926341542  0.0000
  O3     O3        0.647053799203480    0.250778789750823    0.878339679071644  0.0000
  O2     O2        0.148840909271091    0.748640217109855    0.127560914173435  0.0000
  O3     O3        0.365331987046431    0.263377514199619    0.130632064970504  0.0000
  O2     O2        0.637850781780859    0.508158392800400    0.051851682745229  0.0000
  O2     O2        0.871043913885833    0.481217064450565    0.062224258751582  0.0000
  O2     O2        0.369852375764314    0.505418150738474    0.949042481049406  0.0000
  O2     O2        0.137014405158372    0.476629686524684    0.967628654100225  0.0000
  O2     O2        0.748247087317346    0.274375434382525    0.072216002313357  0.0000
  O2     O2        0.760562062076400    0.715628704041980    0.074874573332680  0.0000
  O2     O2        0.258678175112577    0.270689320557034    0.946109587046804  0.0000
  O2     O2        0.246893755935195    0.709831422905947    0.932873548525025  0.0000
