data_c00583.vasp
_audit_creation_method             Generated by GULP
_audit_author_name                 Salvador R. G. Balestra
_symmetry_space_group_name_H-M     'P 1             '
_symmetry_Int_Tables_number        1

loop_
_symmetry_equiv_pos_site_id
_symmetry_equiv_pos_as_xyz
_cell_length_a                       17.2078
_cell_length_b                        7.6253
_cell_length_c                       10.1332
_cell_angle_alpha                   90.9692
_cell_angle_beta                    89.8903
_cell_angle_gamma                   88.2024

loop_
_atom_site_label
_atom_site_type_symbol
_atom_site_fract_x
_atom_site_fract_y
_atom_site_fract_z
_atom_site_charge
  Ge     Ge        0.052090000000021    0.000000000000000    0.372269999999958  0.0000
  Ge     Ge        0.156319894802548    0.309578319913194    0.284491443145377  0.0000
  Ge     Ge        0.356491795084143    0.629078048753300    0.952691151256820  0.0000
  Ge     Ge        0.672713455385599    0.682949170463958    0.024913104072636  0.0000
  Si     Si        0.453925176480243    0.972024454402203    0.359040299338801  0.0000
  Si     Si        0.955960442360892    0.947860358334430    0.636643432096154  0.0000
  Si     Si        0.556799590635426    0.982866863033339    0.615777184864378  0.0000
  Si     Si        0.562776002118706    0.979679873434017    0.111261396162492  0.0000
  Si     Si        0.947945628786756    0.945239895469165    0.122338588701741  0.0000
  Si     Si        0.454964871964128    0.931413760854444    0.865825231205456  0.0000
  Si     Si        0.062446091883468    0.970173036301882    0.887843889717867  0.0000
  Si     Si        0.355368279011508    0.664105236255285    0.266906549744974  0.0000
  Si     Si        0.840742799782465    0.248610883196648    0.699948014513744  0.0000
  Si     Si        0.670725623544051    0.685898666502689    0.710773598494343  0.0000
  Si     Si        0.848425900755896    0.649271845171118    0.708848166891804  0.0000
  Si     Si        0.662277355728572    0.279520585904921    0.703830804617141  0.0000
  Si     Si        0.177005508609556    0.712837214088340    0.260300153938158  0.0000
  Si     Si        0.338565538242914    0.265898811096225    0.289536475153003  0.0000
  Si     Si        0.659826130371997    0.280839575082638    0.010539675238818  0.0000
  Si     Si        0.853772485600541    0.636728870955799    0.019920555493677  0.0000
  Si     Si        0.341089866653564    0.227478960227846    0.979891760740995  0.0000
  Si     Si        0.175456398773450    0.668849564817634    0.950092934185014  0.0000
  Si     Si        0.162228020444714    0.272821220788128    0.970703701648092  0.0000
  Si     Si        0.839815645000136    0.242714112388738    0.008623783720664  0.0000
  O1     O1        0.086333723131749    0.208061054126276    0.372127446972614  0.0000
  O2     O2        0.411701759230122    0.786493379318624    0.352447325732039  0.0000
  O2     O2        0.895195834975513    0.112756786591573    0.615746953897670  0.0000
  O2     O2        0.616189935466515    0.816261305954407    0.626584181059284  0.0000
  O2     O2        0.908053870511977    0.768947920089519    0.632377972501770  0.0000
  O2     O2        0.603856517435336    0.163172515483431    0.618810048122442  0.0000
  O3     O3        0.133921708500349    0.876066958715635    0.328702904531245  0.0000
  O2     O2        0.390806597954450    0.132114988889882    0.376482135086354  0.0000
  O3     O3        0.021198729089895    0.942772340136059    0.526884192786405  0.0000
  O2     O2        0.514412756065398    0.969320272589248    0.477092010491561  0.0000
  O3     O3        0.973073929756680    0.965889120042084    0.271777593716293  0.0000
  O2     O2        0.500962573335833    0.005055019651276    0.226057784894603  0.0000
  O2     O2        0.997024313025576    0.969808653167346    0.777685786028520  0.0000
  O2     O2        0.490656469372016    0.986897576070416    0.727593012428276  0.0000
  O2     O2        0.606144747658766    0.161766702630738    0.097786019022972  0.0000
  O2     O2        0.915592231716498    0.751269406791111    0.098139005099339  0.0000
  O2     O2        0.384646566470446    0.065072854814966    0.907567756268805  0.0000
  O2     O2        0.120408736445258    0.801156171919923    0.867567658080602  0.0000
  O3     O3        0.419474814176833    0.740483594641889    0.854777490579123  0.0000
  O2     O2        0.110062297043042    0.148379357413088    0.879127501662362  0.0000
  O3     O3        0.625550228739228    0.824832625821228    0.133654977087335  0.0000
  O2     O2        0.882094326342714    0.092730047142607    0.091523330237284  0.0000
  O2     O2        0.522218751474572    0.926259980928640    0.974331156758428  0.0000
  O2     O2        0.023564176599475    0.966928824711555    0.032032183166297  0.0000
  O3     O3        0.137303398187897    0.533003352858620    0.297115763857523  0.0000
  O2     O2        0.373775940555692    0.460268740860003    0.299621876944287  0.0000
  O2     O2        0.868630417154488    0.445348272276684    0.673970337592367  0.0000
  O2     O2        0.643174657373837    0.486480136294418    0.687341034220413  0.0000
  O3     O3        0.250572785214198    0.268342019373239    0.339231826340788  0.0000
  O2     O2        0.266394435930406    0.708680405561780    0.308177837292487  0.0000
  O2     O2        0.750780749827546    0.234123538225576    0.657341215610366  0.0000
  O2     O2        0.760448381480817    0.698053281409024    0.664145775805392  0.0000
  O3     O3        0.148195137729988    0.235228342145108    0.122957407115929  0.0000
  O3     O3        0.368233465627172    0.700639245107544    0.113721074699929  0.0000
  O2     O2        0.848345572421730    0.199782570844632    0.853466835697908  0.0000
  O3     O3        0.664632596712038    0.744319474920887    0.862422255398192  0.0000
  O2     O2        0.855009391373660    0.682567371388403    0.865283790945370  0.0000
  O2     O2        0.651555255863283    0.229703292829939    0.856228339700948  0.0000
  O2     O2        0.177604333746211    0.731998132373211    0.102173777207246  0.0000
  O2     O2        0.341069403854223    0.200809432777814    0.137086756851228  0.0000
  O3     O3        0.633446659983594    0.478940877855993    0.038209682244121  0.0000
  O2     O2        0.876943768488911    0.431167508525497    0.040413463672835  0.0000
  O3     O3        0.380356410142611    0.407423910893991    0.943521071505016  0.0000
  O2     O2        0.139957661189990    0.475130608328132    0.939088799843522  0.0000
  O2     O2        0.749848012756825    0.250574142570461    0.051148185621174  0.0000
  O3     O3        0.768314277511787    0.677392745471730    0.074260157797524  0.0000
  O2     O2        0.252074635154599    0.234570475099441    0.931511735806144  0.0000
  O3     O3        0.262591148558720    0.664540130582608    0.896590035382240  0.0000
