data_c00582.vasp
_audit_creation_method             Generated by GULP
_audit_author_name                 Salvador R. G. Balestra
_symmetry_space_group_name_H-M     'P 1             '
_symmetry_Int_Tables_number        1

loop_
_symmetry_equiv_pos_site_id
_symmetry_equiv_pos_as_xyz
_cell_length_a                       17.1269
_cell_length_b                        7.6461
_cell_length_c                       10.2581
_cell_angle_alpha                   89.8689
_cell_angle_beta                    91.0521
_cell_angle_gamma                   90.4577

loop_
_atom_site_label
_atom_site_type_symbol
_atom_site_fract_x
_atom_site_fract_y
_atom_site_fract_z
_atom_site_charge
  Ge     Ge        0.052090000000021    0.000000000000000    0.372269999999958  0.0000
  Ge     Ge        0.175984506253872    0.285232325879355    0.292811174354068  0.0000
  Ge     Ge        0.331717060769349    0.743937902718157    0.974598199077929  0.0000
  Ge     Ge        0.171314241289557    0.283752015326013    0.978672273148229  0.0000
  Si     Si        0.455654503493743    0.030356004239538    0.370467276288714  0.0000
  Si     Si        0.946041762976960    0.008643303379162    0.624388592595517  0.0000
  Si     Si        0.550808341903581    0.019030659878281    0.636680219245045  0.0000
  Si     Si        0.558742316536886    0.003692665918880    0.123585655781409  0.0000
  Si     Si        0.949428826642921    0.019568508347273    0.106675371351979  0.0000
  Si     Si        0.444618948861797    0.030511135335998    0.886086912577542  0.0000
  Si     Si        0.057153796954496    0.998845666226216    0.867379617644907  0.0000
  Si     Si        0.337762864294108    0.743537146929531    0.284212123808594  0.0000
  Si     Si        0.838128091719674    0.307181177894305    0.724976114674039  0.0000
  Si     Si        0.660952376421045    0.720549890607860    0.724934176428872  0.0000
  Si     Si        0.841243211993377    0.708045150748750    0.723787854974267  0.0000
  Si     Si        0.658553842415381    0.318846337622928    0.721400412515892  0.0000
  Si     Si        0.157773779436225    0.696471732722210    0.285130451370019  0.0000
  Si     Si        0.354531650146124    0.343557470705397    0.285076244557882  0.0000
  Si     Si        0.657194901871491    0.317494336693960    0.026003848687870  0.0000
  Si     Si        0.847560304771449    0.705374421831666    0.028176399768671  0.0000
  Si     Si        0.351470880292838    0.346875042600841    0.975652023871003  0.0000
  Si     Si        0.148543530196461    0.688895515212276    0.982633603379531  0.0000
  Si     Si        0.666832198305961    0.716398595150010    0.028906917987944  0.0000
  Si     Si        0.837113056684395    0.307832769518202    0.030416690080971  0.0000
  O1     O1        0.122456272214121    0.157181655912295    0.394176573056190  0.0000
  O2     O2        0.386468615875840    0.886064588830932    0.368046743992752  0.0000
  O2     O2        0.893058748042302    0.179090461358509    0.646013138610858  0.0000
  O2     O2        0.606259843570673    0.849338470042237    0.641471095996009  0.0000
  O2     O2        0.894526204696519    0.833103437373302    0.638093024738947  0.0000
  O2     O2        0.603425494466594    0.194348486041080    0.634430940120492  0.0000
  O3     O3        0.099026647526711    0.801200003607751    0.373842788386863  0.0000
  O2     O2        0.422020885381918    0.225279750035588    0.350320752674846  0.0000
  O3     O3        0.977466471976794    0.012426321702254    0.480336911773127  0.0000
  O2     O2        0.497639558026457    0.014882862868591    0.509032234938039  0.0000
  O3     O3        0.010747554481236    0.040103583240261    0.220623604626357  0.0000
  O2     O2        0.519657507158108    0.992579549167126    0.262648903075533  0.0000
  O2     O2        0.020448896382208    0.003402761079334    0.722292395229162  0.0000
  O2     O2        0.494440499927942    0.020875249923993    0.758099473304150  0.0000
  O2     O2        0.600044861407427    0.192713651024875    0.106410042982371  0.0000
  O2     O2        0.905504701523467    0.830537516256071    0.110738609377235  0.0000
  O2     O2        0.415765052167260    0.227850144530597    0.907549654588349  0.0000
  O2     O2        0.087531420451516    0.803290672401159    0.898048451029635  0.0000
  O3     O3        0.371281382040335    0.901007869145811    0.875487353326633  0.0000
  O3     O3        0.127116066623945    0.137144143312467    0.873481274857741  0.0000
  O2     O2        0.621932183776177    0.849752314898286    0.119713406424548  0.0000
  O2     O2        0.885118124292992    0.172095554245302    0.118004708134962  0.0000
  O2     O2        0.494434164946026    0.965669055130710    0.011634223893294  0.0000
  O2     O2        0.992439612563370    0.052969738339032    0.970705718848683  0.0000
  O3     O3        0.139288128098918    0.494228460619628    0.298702451477297  0.0000
  O2     O2        0.373728429525255    0.549845084801612    0.306354667885165  0.0000
  O2     O2        0.862266325845681    0.507194667094108    0.693144631882372  0.0000
  O2     O2        0.636680628678866    0.520391903117627    0.693907369461743  0.0000
  O3     O3        0.272497421249642    0.293482366586086    0.346182803857586  0.0000
  O2     O2        0.247571114807818    0.741109868931117    0.328222509538489  0.0000
  O2     O2        0.747626660071414    0.280030821890625    0.683334977898413  0.0000
  O2     O2        0.751166795746190    0.747884826586807    0.687841110332752  0.0000
  O1     O1        0.169522145459813    0.208635711072519    0.135461851713597  0.0000
  O3     O3        0.341408733068251    0.804193569466432    0.135522232964633  0.0000
  O2     O2        0.847407410062531    0.267281714501352    0.878021316613838  0.0000
  O2     O2        0.651387914873340    0.763292452829598    0.877470736217124  0.0000
  O2     O2        0.858430575287083    0.747479358133714    0.875721424511392  0.0000
  O2     O2        0.645525596024689    0.274679179236674    0.873261136548833  0.0000
  O2     O2        0.146527256563257    0.753308288696033    0.133271527069196  0.0000
  O2     O2        0.346766212851730    0.307019332239562    0.130661782413715  0.0000
  O2     O2        0.636686690826963    0.519003531871932    0.055659988883299  0.0000
  O2     O2        0.868157854073665    0.504244799134328    0.060548564618415  0.0000
  O3     O3        0.376440635952697    0.544994890936683    0.951327895307026  0.0000
  O3     O3        0.126345316296500    0.486470985903813    0.972262047714662  0.0000
  O2     O2        0.746829821756580    0.285597146975920    0.067990641544300  0.0000
  O2     O2        0.758058599139723    0.737691917956599    0.065031172661165  0.0000
  O3     O3        0.265191798393278    0.307286566752622    0.921216898940656  0.0000
  O3     O3        0.235014062812879    0.720800193229176    0.930343856772130  0.0000
