data_c00594.vasp
_audit_creation_method             Generated by GULP
_audit_author_name                 Salvador R. G. Balestra
_symmetry_space_group_name_H-M     'P 1             '
_symmetry_Int_Tables_number        1

loop_
_symmetry_equiv_pos_site_id
_symmetry_equiv_pos_as_xyz
_cell_length_a                       17.2556
_cell_length_b                        7.6544
_cell_length_c                       10.1572
_cell_angle_alpha                   88.5433
_cell_angle_beta                    90.2053
_cell_angle_gamma                   91.0796

loop_
_atom_site_label
_atom_site_type_symbol
_atom_site_fract_x
_atom_site_fract_y
_atom_site_fract_z
_atom_site_charge
  Ge     Ge        0.052090000000021    0.000000000000000    0.372269999999958  0.0000
  Ge     Ge        0.336469157712709    0.740374299232303    0.296274607088615  0.0000
  Ge     Ge        0.842520976810392    0.338823732016179    0.728750092163637  0.0000
  Ge     Ge        0.345460728011321    0.352199990340082    0.974022996298371  0.0000
  Si     Si        0.452746539855807    0.029007972026696    0.374965193551278  0.0000
  Si     Si        0.951080984188701    0.042858155072543    0.633268775706350  0.0000
  Si     Si        0.550597011140638    0.026128802735611    0.632437918323811  0.0000
  Si     Si        0.550770919739442    0.008966517759236    0.115139407986558  0.0000
  Si     Si        0.941826968973412    0.027453785916950    0.117116302634124  0.0000
  Si     Si        0.439204282180197    0.045112421744310    0.869835309009000  0.0000
  Si     Si        0.053982132539325    0.018625340265400    0.881242789030110  0.0000
  Si     Si        0.171757852501435    0.294375630410212    0.292055443078199  0.0000
  Si     Si        0.657633989130330    0.727878678178782    0.732316921528574  0.0000
  Si     Si        0.836125494446238    0.746345740506812    0.735702422912275  0.0000
  Si     Si        0.660985348122974    0.325234908628009    0.728394358643266  0.0000
  Si     Si        0.154843007021166    0.693400973048712    0.301832025567351  0.0000
  Si     Si        0.351372733998075    0.332097443258025    0.285261401985101  0.0000
  Si     Si        0.658888779179926    0.316813057014699    0.038413849557064  0.0000
  Si     Si        0.835056305283759    0.723953608269662    0.045585661901984  0.0000
  Si     Si        0.151499795567685    0.711368965989782    0.994559140130258  0.0000
  Si     Si        0.330437212502356    0.758214919310611    0.984411683715166  0.0000
  Si     Si        0.163561370371643    0.314035186298752    0.984596929424265  0.0000
  Si     Si        0.656767682967303    0.714163177987877    0.039955276016348  0.0000
  Si     Si        0.836667491162137    0.326205689656898    0.045004985119417  0.0000
  O3     O3        0.125844274171689    0.155729740065083    0.381533334428279  0.0000
  O3     O3        0.390768678446834    0.872969854910081    0.396118359643907  0.0000
  O3     O3        0.910995191247122    0.228524933616125    0.644075367351707  0.0000
  O2     O2        0.602032139650023    0.853919923586474    0.649227392360999  0.0000
  O2     O2        0.884855595808610    0.896594249161615    0.661246512656578  0.0000
  O2     O2        0.601825603826227    0.200665352749323    0.651861432743320  0.0000
  O3     O3        0.093792593595778    0.796939650315100    0.385634712051688  0.0000
  O2     O2        0.407587208711877    0.211438691522212    0.373624416204327  0.0000
  O3     O3        0.981701223305741    0.022110649130416    0.487398048893101  0.0000
  O2     O2        0.518828609291682    0.031485334356750    0.484836261991570  0.0000
  O3     O3        0.009067409700044    0.029457373548188    0.221086219324201  0.0000
  O2     O2        0.493140274683898    0.997463127815513    0.235882846047260  0.0000
  O2     O2        0.024910745662583    0.021994282423289    0.730631222856532  0.0000
  O2     O2        0.476983261448187    0.017217136231395    0.728501180708071  0.0000
  O2     O2        0.604297410334927    0.183587786546476    0.121034640135611  0.0000
  O2     O2        0.887758539092306    0.852584361235243    0.132057456184722  0.0000
  O3     O3        0.406799843481991    0.238953710888175    0.875636219100999  0.0000
  O2     O2        0.095438410662033    0.834615809476373    0.909380950486045  0.0000
  O2     O2        0.367836022985149    0.907792583179466    0.889248305550907  0.0000
  O2     O2        0.112251359235648    0.182198670065213    0.899387635868713  0.0000
  O2     O2        0.603316016722305    0.837133737326058    0.124346478020508  0.0000
  O2     O2        0.888679021204335    0.197090969030127    0.133736256219142  0.0000
  O2     O2        0.503641752009580    0.008843837922897    0.980081587882083  0.0000
  O2     O2        0.979269879796150    0.035621907418927    0.972046294456871  0.0000
  O2     O2        0.138468071153798    0.486295129748076    0.317091496360162  0.0000
  O3     O3        0.372770263088047    0.532180124660842    0.306280508686186  0.0000
  O3     O3        0.864452986711994    0.557417815819057    0.699105733823831  0.0000
  O2     O2        0.636759697175698    0.526574349324784    0.702331713304048  0.0000
  O2     O2        0.262399921953499    0.294127526211242    0.329348664586662  0.0000
  O3     O3        0.241455975757939    0.739499183395452    0.347787732138530  0.0000
  O3     O3        0.747680155495445    0.297888992466340    0.680128849609437  0.0000
  O2     O2        0.746508017872095    0.768164624616010    0.692620320700236  0.0000
  O2     O2        0.162867921557716    0.250214731120711    0.137498732231472  0.0000
  O3     O3        0.340365914375568    0.813590170197154    0.134296738802018  0.0000
  O3     O3        0.848141042150588    0.284669604769734    0.893481924859728  0.0000
  O2     O2        0.647205261806972    0.764754788859836    0.886300873552248  0.0000
  O2     O2        0.844625408721703    0.771573011807497    0.891898714172169  0.0000
  O2     O2        0.654336069563012    0.277915923863507    0.883742256763699  0.0000
  O2     O2        0.144689877017832    0.755187239172214    0.148339426818862  0.0000
  O3     O3        0.360359039994256    0.281508384498872    0.134075972039335  0.0000
  O2     O2        0.630705915455793    0.512601220582567    0.065594135820488  0.0000
  O2     O2        0.862153255430321    0.525959099366897    0.073796491513396  0.0000
  O3     O3        0.368313583496262    0.572353355225347    0.960734498654916  0.0000
  O2     O2        0.128118287691814    0.508907599931754    0.970999782650529  0.0000
  O2     O2        0.747122421349239    0.295331722803511    0.086026612021696  0.0000
  O2     O2        0.745467949073525    0.743090235075396    0.085514071441251  0.0000
  O3     O3        0.249974972301578    0.316219078989220    0.930093508883588  0.0000
  O2     O2        0.239476596488659    0.743329304611040    0.947892796152287  0.0000
