data_c00542.vasp
_audit_creation_method             Generated by GULP
_audit_author_name                 Salvador R. G. Balestra
_symmetry_space_group_name_H-M     'P 1             '
_symmetry_Int_Tables_number        1

loop_
_symmetry_equiv_pos_site_id
_symmetry_equiv_pos_as_xyz
_cell_length_a                       17.2387
_cell_length_b                        7.6514
_cell_length_c                       10.2195
_cell_angle_alpha                   89.8729
_cell_angle_beta                    90.4453
_cell_angle_gamma                   89.0658

loop_
_atom_site_label
_atom_site_type_symbol
_atom_site_fract_x
_atom_site_fract_y
_atom_site_fract_z
_atom_site_charge
  Ge     Ge        0.052090000000021    0.000000000000000    0.372269999999958  0.0000
  Ge     Ge        0.158058591117226    0.312395781835687    0.296313560548584  0.0000
  Ge     Ge        0.662502380567259    0.282119402658882    0.717389833255946  0.0000
  Ge     Ge        0.333090283142723    0.264586924220082    0.974659164581157  0.0000
  Si     Si        0.453909715043946    0.969644690524249    0.377359358814835  0.0000
  Si     Si        0.953486032662485    0.979927048750746    0.633568163566075  0.0000
  Si     Si        0.552172426713631    0.986251566089818    0.636367431310275  0.0000
  Si     Si        0.556822718583322    0.988028521416198    0.129094003954624  0.0000
  Si     Si        0.946246549204168    0.971592559839555    0.110934862129325  0.0000
  Si     Si        0.445565283678891    0.974067507300471    0.886760854784301  0.0000
  Si     Si        0.059291008884391    0.994879794393742    0.876849620431063  0.0000
  Si     Si        0.352820201004740    0.667256674836862    0.279156029691014  0.0000
  Si     Si        0.844683098638435    0.282952404543394    0.725198086050250  0.0000
  Si     Si        0.664854793550797    0.691862137161713    0.720564309375847  0.0000
  Si     Si        0.843435893381119    0.684569814931150    0.731595138044844  0.0000
  Si     Si        0.173829641671102    0.717364271503754    0.287919458101236  0.0000
  Si     Si        0.338612951092463    0.265465342684141    0.287895471107710  0.0000
  Si     Si        0.662446826667358    0.278254023941984    0.028560879199453  0.0000
  Si     Si        0.837829047594672    0.678072430406371    0.038111180391322  0.0000
  Si     Si        0.169857201846808    0.704011041445880    0.983304889633703  0.0000
  Si     Si        0.349925874340404    0.665399254310787    0.975614565606376  0.0000
  Si     Si        0.152728781052850    0.304608123931799    0.983235708778512  0.0000
  Si     Si        0.659662759739910    0.680758976975288    0.026717368937314  0.0000
  Si     Si        0.841359614751440    0.281271595517877    0.033411534373804  0.0000
  O1     O1        0.090867442134192    0.202638106214175    0.384511242586830  0.0000
  O2     O2        0.410599154770805    0.785821330607793    0.362400924673329  0.0000
  O2     O2        0.904509884883681    0.159485561039111    0.648447714377060  0.0000
  O2     O2        0.615006404758368    0.827991833337580    0.634424741661885  0.0000
  O2     O2        0.900161133503295    0.812932910137050    0.657666758886080  0.0000
  O3     O3        0.599260426077219    0.163256118280486    0.624423772700820  0.0000
  O3     O3        0.132430673295822    0.860241524440562    0.375792390667916  0.0000
  O2     O2        0.394061238777628    0.132444544886983    0.368173084413689  0.0000
  O3     O3        0.983483585128467    0.962543540455342    0.487942086288877  0.0000
  O2     O2        0.490975234830023    0.968270515660531    0.520466394313040  0.0000
  O3     O3        0.008454101199363    0.963866943740312    0.223181799661224  0.0000
  O2     O2        0.522437710917264    0.987440319520838    0.273447150620165  0.0000
  O2     O2        0.028720564027449    0.983403161193813    0.728294992690397  0.0000
  O2     O2        0.506256169361841    0.980334284037572    0.771624613444310  0.0000
  O2     O2        0.612905288253983    0.153631859563963    0.120870103379219  0.0000
  O2     O2        0.888485447078014    0.808187427722170    0.124615613265551  0.0000
  O3     O3        0.380422621764565    0.122872858278252    0.872203728910376  0.0000
  O2     O2        0.126234822432199    0.846789798542299    0.893282077005133  0.0000
  O2     O2        0.403875353733470    0.786761398661090    0.887680364513001  0.0000
  O2     O2        0.091365211416637    0.189053664730290    0.902148378775794  0.0000
  O2     O2        0.603157295838812    0.805839082864046    0.108491861089094  0.0000
  O2     O2        0.895990420376856    0.152013278237095    0.117828906687640  0.0000
  O2     O2        0.487861773349061    0.012614126653405    0.024633572865068  0.0000
  O2     O2        0.988248274705256    0.955981560731749    0.971554583376795  0.0000
  O3     O3        0.137157448330044    0.530604510438788    0.315311526148022  0.0000
  O2     O2        0.372226995944035    0.462234176836136    0.299995797659541  0.0000
  O2     O2        0.867111482159360    0.484477730752512    0.699197693446143  0.0000
  O3     O3        0.638981878341458    0.498273841840982    0.689577393654642  0.0000
  O3     O3        0.252531379726827    0.263661821007353    0.344589293046765  0.0000
  O2     O2        0.265126773662219    0.706793813534245    0.323917036657335  0.0000
  O3     O3        0.758366524219133    0.247662065434769    0.675775421403891  0.0000
  O2     O2        0.755015761963090    0.718496233644139    0.684411442641819  0.0000
  O3     O3        0.148735387821785    0.250648097593790    0.134087010540022  0.0000
  O2     O2        0.362564658095003    0.717111873689646    0.127256012939027  0.0000
  O2     O2        0.850552661143041    0.241963352386149    0.879808726319836  0.0000
  O2     O2        0.652532037167824    0.731259344829232    0.874422320579322  0.0000
  O2     O2        0.848814289808102    0.720837956748465    0.885721446982012  0.0000
  O3     O3        0.650894858730535    0.223876138626146    0.879167194069719  0.0000
  O2     O2        0.164106902507640    0.764545338113239    0.133710611554629  0.0000
  O3     O3        0.336845923041124    0.207134999920834    0.137340945779653  0.0000
  O2     O2        0.634955814597389    0.480034123147312    0.047334165307453  0.0000
  O2     O2        0.865564210574164    0.479098550672158    0.067382285764603  0.0000
  O3     O3        0.373641192705024    0.467320798369025    0.951613234551356  0.0000
  O2     O2        0.132300161804064    0.512470150074330    0.967287316378285  0.0000
  O2     O2        0.752123896457580    0.254687198302207    0.071507527142264  0.0000
  O2     O2        0.747850358087815    0.704677182647978    0.075933440514700  0.0000
  O3     O3        0.237338748907474    0.269236506356933    0.926309706671405  0.0000
  O2     O2        0.259237927315045    0.695320722154096    0.938801118434323  0.0000
