data_c00557.vasp
_audit_creation_method             Generated by GULP
_audit_author_name                 Salvador R. G. Balestra
_symmetry_space_group_name_H-M     'P 1             '
_symmetry_Int_Tables_number        1

loop_
_symmetry_equiv_pos_site_id
_symmetry_equiv_pos_as_xyz
_cell_length_a                       17.1570
_cell_length_b                        7.6350
_cell_length_c                       10.3028
_cell_angle_alpha                   91.3954
_cell_angle_beta                    91.0511
_cell_angle_gamma                   90.5735

loop_
_atom_site_label
_atom_site_type_symbol
_atom_site_fract_x
_atom_site_fract_y
_atom_site_fract_z
_atom_site_charge
  Ge     Ge        0.052090000000021    0.000000000000000    0.372269999999958  0.0000
  Ge     Ge        0.175004030998807    0.282592206400147    0.292632107248447  0.0000
  Ge     Ge        0.362532077581928    0.343283419861697    0.287563045383033  0.0000
  Ge     Ge        0.169229147920839    0.273561676148448    0.981634580635074  0.0000
  Si     Si        0.460840803896704    0.032433271778864    0.373297276258997  0.0000
  Si     Si        0.946643398689854    0.988810939728981    0.624187074560351  0.0000
  Si     Si        0.550424651130415    0.992421107255960    0.638886473527031  0.0000
  Si     Si        0.562393902679230    0.012021322794546    0.123995257416239  0.0000
  Si     Si        0.952700925990656    0.022070681150773    0.104859397369374  0.0000
  Si     Si        0.444522152664917    0.010317589881653    0.885977297370738  0.0000
  Si     Si        0.059653481669852    0.987271137611919    0.864953067962212  0.0000
  Si     Si        0.337522562384660    0.749510263020094    0.278353031278273  0.0000
  Si     Si        0.837508707141232    0.288730390517446    0.725789897459585  0.0000
  Si     Si        0.662702659121268    0.702442406410329    0.724490403675860  0.0000
  Si     Si        0.842526569765294    0.690368518885864    0.720120013332313  0.0000
  Si     Si        0.658443990389832    0.299607319113722    0.726496509531630  0.0000
  Si     Si        0.159818362267366    0.695245828502975    0.283297620809043  0.0000
  Si     Si        0.660929749512658    0.319651678815613    0.030066888718585  0.0000
  Si     Si        0.849989071962554    0.706107761266617    0.023155833078877  0.0000
  Si     Si        0.356508144338662    0.329034381078330    0.983307860953817  0.0000
  Si     Si        0.152366907928744    0.678565457811072    0.976501330116657  0.0000
  Si     Si        0.332172201199892    0.722248088198948    0.972625309783998  0.0000
  Si     Si        0.669501984873434    0.718672480799325    0.026985737351229  0.0000
  Si     Si        0.840239421334516    0.308576899117636    0.029945474655845  0.0000
  O1     O1        0.121480512899491    0.159748865482861    0.396309580994583  0.0000
  O2     O2        0.385807119082532    0.906459714911550    0.347423391464696  0.0000
  O2     O2        0.892121730799492    0.156110192838327    0.649073573467007  0.0000
  O2     O2        0.608189802738843    0.827271527441615    0.640852509972813  0.0000
  O2     O2        0.896376129707382    0.810342095681494    0.633144276502521  0.0000
  O2     O2        0.600297196109401    0.172475422098956    0.645044254045237  0.0000
  O3     O3        0.098262728761745    0.800808494226205    0.366365752853271  0.0000
  O3     O3        0.430819646659445    0.229243293766174    0.377035142273992  0.0000
  O3     O3        0.978337947433202    0.001225660665629    0.481662419882177  0.0000
  O2     O2        0.501303256181243    0.980705891597061    0.507031765410332  0.0000
  O3     O3        0.010633333167587    0.041158210374777    0.222841276518814  0.0000
  O2     O2        0.523778860320312    0.001984999930171    0.262235757882071  0.0000
  O2     O2        0.020816059919364    0.984174840053392    0.722241046504902  0.0000
  O2     O2        0.490321356540055    0.983961375843506    0.754774293017119  0.0000
  O2     O2        0.605543668415797    0.199814507804359    0.114498255150959  0.0000
  O2     O2        0.907430479588244    0.834685764318802    0.104920173110106  0.0000
  O2     O2        0.407842465080048    0.204227202506786    0.889804183803140  0.0000
  O2     O2        0.091269869401752    0.794590532972200    0.897428046355996  0.0000
  O2     O2        0.376211550315413    0.863719843613151    0.887515370642950  0.0000
  O3     O3        0.130215870632287    0.124995027427835    0.869737279136557  0.0000
  O2     O2        0.624747862973668    0.856408275720989    0.116089997049887  0.0000
  O2     O2        0.889838246027735    0.177875248699707    0.115881401477330  0.0000
  O2     O2        0.499537712646289    0.981226599232538    0.009864460171161  0.0000
  O2     O2        0.997608538215674    0.049363539835424    0.970939450226882  0.0000
  O3     O3        0.161375054155584    0.501023091043143    0.332328759911993  0.0000
  O3     O3        0.360964869056224    0.562680854798072    0.333555050648745  0.0000
  O2     O2        0.861687153748886    0.487001304001849    0.690976259775029  0.0000
  O2     O2        0.638020864281100    0.500418133470417    0.696357573003979  0.0000
  O1     O1        0.273070160486209    0.249121816064847    0.306689032204628  0.0000
  O2     O2        0.245921360786585    0.784574427746487    0.301484662984237  0.0000
  O2     O2        0.746873955770138    0.256786974923320    0.686235324111086  0.0000
  O2     O2        0.752477294258484    0.728834043546183    0.685697602439175  0.0000
  O1     O1        0.142086632832570    0.235207963238167    0.136580906297949  0.0000
  O2     O2        0.353197962342728    0.748630068503172    0.124451394362713  0.0000
  O2     O2        0.848131437940481    0.258722022063900    0.878398566568868  0.0000
  O2     O2        0.653440247590918    0.755161845158836    0.875627224407995  0.0000
  O2     O2        0.860854115513283    0.739084512364698    0.870633730662112  0.0000
  O2     O2        0.647563268729535    0.266474731338481    0.878904477623741  0.0000
  O2     O2        0.136308988141985    0.697805729772448    0.130156109330140  0.0000
  O3     O3        0.391734404219205    0.324778653984539    0.127699026530007  0.0000
  O2     O2        0.639872986405015    0.522501679329823    0.056924726161730  0.0000
  O2     O2        0.871405668200818    0.506856530017580    0.056713563353837  0.0000
  O2     O2        0.357516083195554    0.526425305445969    0.928231733852420  0.0000
  O3     O3        0.141674516614437    0.479540608308080    0.931972496374313  0.0000
  O2     O2        0.750621095308200    0.290267664365604    0.070595812916546  0.0000
  O2     O2        0.760907515447456    0.741286696513548    0.060368027315998  0.0000
  O3     O3        0.268947326375503    0.258353370780308    0.986326765409145  0.0000
  O2     O2        0.240049607296189    0.745788031852132    0.948364322535586  0.0000
