data_c00598.vasp
_audit_creation_method             Generated by GULP
_audit_author_name                 Salvador R. G. Balestra
_symmetry_space_group_name_H-M     'P 1             '
_symmetry_Int_Tables_number        1

loop_
_symmetry_equiv_pos_site_id
_symmetry_equiv_pos_as_xyz
_cell_length_a                       17.2278
_cell_length_b                        7.6185
_cell_length_c                       10.2964
_cell_angle_alpha                   88.5330
_cell_angle_beta                    90.0267
_cell_angle_gamma                   90.2382

loop_
_atom_site_label
_atom_site_type_symbol
_atom_site_fract_x
_atom_site_fract_y
_atom_site_fract_z
_atom_site_charge
  Ge     Ge        0.052090000000021    0.000000000000000    0.372269999999958  0.0000
  Ge     Ge        0.354157446734158    0.688295824223723    0.271609628672203  0.0000
  Ge     Ge        0.850523149661312    0.330275570168220    0.702624370568262  0.0000
  Ge     Ge        0.652522233939991    0.673953169341583    0.019614821133931  0.0000
  Si     Si        0.458767372267620    0.995436557969732    0.355018626233204  0.0000
  Si     Si        0.955311932836691    0.022682337092334    0.636833561513013  0.0000
  Si     Si        0.552575005123067    0.013866283879820    0.616813947443351  0.0000
  Si     Si        0.557447105653815    0.988391428140931    0.101335986527671  0.0000
  Si     Si        0.943276999899415    0.002190532584035    0.124877658821664  0.0000
  Si     Si        0.444089126940661    0.008716113207967    0.861879769040363  0.0000
  Si     Si        0.058321576911436    0.011443291983326    0.891376507735967  0.0000
  Si     Si        0.161018665207161    0.306659522550282    0.272816858586472  0.0000
  Si     Si        0.655744373979457    0.706290637112972    0.711074815974921  0.0000
  Si     Si        0.833940346217313    0.738768508644457    0.716127207389186  0.0000
  Si     Si        0.669106184741605    0.302141505876013    0.701135187215673  0.0000
  Si     Si        0.172439836923825    0.714630854955888    0.273889026580204  0.0000
  Si     Si        0.339859614179352    0.276131706494958    0.267363340010835  0.0000
  Si     Si        0.671337538907880    0.273063936413835    0.006373746890127  0.0000
  Si     Si        0.833792536822259    0.710948432530121    0.021550523664821  0.0000
  Si     Si        0.336701433959983    0.295236580974913    0.963449111708437  0.0000
  Si     Si        0.169817284365511    0.719754841418946    0.970647584103784  0.0000
  Si     Si        0.349149481536324    0.695869194539445    0.962211890630908  0.0000
  Si     Si        0.157374286012966    0.319697764710645    0.971694105985554  0.0000
  Si     Si        0.849849661956684    0.313862214954297    0.011560673721358  0.0000
  O3     O3        0.101662943877920    0.196821217045518    0.359470199018344  0.0000
  O3     O3        0.422969098801598    0.801732190442619    0.357008349583068  0.0000
  O3     O3        0.918374973910382    0.214639853755746    0.616933210141842  0.0000
  O2     O2        0.597998558131865    0.829470168998579    0.626890510913344  0.0000
  O2     O2        0.881437856105785    0.890687407756049    0.640925148547494  0.0000
  O2     O2        0.612725869793538    0.175347462157377    0.622773253183625  0.0000
  O3     O3        0.116520025365934    0.830556710513213    0.357346620967825  0.0000
  O2     O2        0.386381418258953    0.129294460443371    0.348833407397231  0.0000
  O3     O3        0.015293387124975    0.978986100812919    0.526759706217088  0.0000
  O2     O2        0.510360057362507    0.028181234088454    0.479815654492807  0.0000
  O3     O3        0.973726460674503    0.989336988198280    0.269986877710987  0.0000
  O2     O2        0.513225603256088    0.034695314889688    0.231348330899908  0.0000
  O2     O2        0.999720410444962    0.001928910622334    0.773584579731125  0.0000
  O2     O2        0.486744785233246    0.028703870691069    0.725470913441153  0.0000
  O2     O2        0.633924629568796    0.110349717607785    0.085458624080614  0.0000
  O2     O2        0.882047772249219    0.845507531710809    0.106225735089602  0.0000
  O2     O2        0.380572895905517    0.162764227602749    0.870801627515211  0.0000
  O2     O2        0.121945802651087    0.857121499274544    0.881982555907760  0.0000
  O2     O2        0.402636943240238    0.818268563872266    0.869093135319514  0.0000
  O2     O2        0.100692093921126    0.201545177661667    0.885861693979758  0.0000
  O3     O3        0.585842555518818    0.788964567391112    0.107976103647250  0.0000
  O2     O2        0.903689221536239    0.191771345421187    0.102574084078662  0.0000
  O2     O2        0.504353178472992    0.031844997918927    0.977544152304030  0.0000
  O2     O2        0.014792267148658    0.979655353217057    0.027341741220646  0.0000
  O2     O2        0.148249154649868    0.511664706952958    0.295244992041348  0.0000
  O3     O3        0.370636435985429    0.467779612025869    0.298669038088875  0.0000
  O3     O3        0.869482451755075    0.551732909002172    0.684043220141054  0.0000
  O2     O2        0.637893054984114    0.501780055831896    0.685467618808536  0.0000
  O2     O2        0.249683205950328    0.257199803505544    0.307716268476389  0.0000
  O3     O3        0.260953804502296    0.740204807761945    0.316725625783330  0.0000
  O3     O3        0.756560668739605    0.291478410536096    0.650649202062410  0.0000
  O2     O2        0.744506597275008    0.747760713542477    0.669267505874292  0.0000
  O2     O2        0.145348805188531    0.262401676652044    0.122098286552584  0.0000
  O3     O3        0.366870117604724    0.744194138594934    0.109199855617256  0.0000
  O3     O3        0.862111495363601    0.265057010923483    0.863420529507403  0.0000
  O3     O3        0.642757451506553    0.747142380615609    0.860598302070632  0.0000
  O2     O2        0.834785990563997    0.770227166963014    0.870363240335196  0.0000
  O2     O2        0.669044094313883    0.242094365573937    0.852285724555738  0.0000
  O2     O2        0.164333351208546    0.769019942370293    0.121475929391698  0.0000
  O2     O2        0.348877642360099    0.240981044894114    0.113958845970861  0.0000
  O3     O3        0.629223648986107    0.454164202162143    0.036490516587044  0.0000
  O2     O2        0.871977086139318    0.517106249227803    0.035231487470746  0.0000
  O2     O2        0.369479932863124    0.492296604736009    0.938413344964038  0.0000
  O2     O2        0.136145954360238    0.524177565390302    0.948695721563750  0.0000
  O2     O2        0.760321682868844    0.285598560119636    0.051745688335368  0.0000
  O3     O3        0.746322243906371    0.706732699085358    0.071892834055550  0.0000
  O2     O2        0.245779556420969    0.287435234398904    0.928871815014425  0.0000
  O2     O2        0.259240246884059    0.729464826292223    0.927425000536273  0.0000
