data_c00520.vasp
_audit_creation_method             Generated by GULP
_audit_author_name                 Salvador R. G. Balestra
_symmetry_space_group_name_H-M     'P 1             '
_symmetry_Int_Tables_number        1

loop_
_symmetry_equiv_pos_site_id
_symmetry_equiv_pos_as_xyz
_cell_length_a                       17.1764
_cell_length_b                        7.6383
_cell_length_c                       10.2729
_cell_angle_alpha                   91.7541
_cell_angle_beta                    89.9694
_cell_angle_gamma                   89.8283

loop_
_atom_site_label
_atom_site_type_symbol
_atom_site_fract_x
_atom_site_fract_y
_atom_site_fract_z
_atom_site_charge
  Ge     Ge        0.052090000000021    0.000000000000000    0.372269999999958  0.0000
  Ge     Ge        0.155015496375529    0.316753161527350    0.296671982891952  0.0000
  Ge     Ge        0.659850716693551    0.647407163853588    0.722281703589725  0.0000
  Ge     Ge        0.342993977781575    0.275215841676628    0.293666266762966  0.0000
  Si     Si        0.458599862466712    0.986682843524787    0.374488546282261  0.0000
  Si     Si        0.956335940882859    0.961567726431617    0.635070414113523  0.0000
  Si     Si        0.554579355162124    0.949871693318465    0.632033631924407  0.0000
  Si     Si        0.560235225425553    0.978454360693408    0.118528196172143  0.0000
  Si     Si        0.949671135065587    0.978597021504035    0.109922590192357  0.0000
  Si     Si        0.447167185512206    0.966410032632840    0.878058003556079  0.0000
  Si     Si        0.064770179118941    0.977915504152177    0.874606995942169  0.0000
  Si     Si        0.356163915633502    0.678773573373427    0.281007093568520  0.0000
  Si     Si        0.850439798581788    0.268268323265435    0.732450128362972  0.0000
  Si     Si        0.841217566592153    0.669805744350453    0.726402345563602  0.0000
  Si     Si        0.671424195067425    0.238434619264727    0.731809181103553  0.0000
  Si     Si        0.174411381664641    0.720122361962300    0.283593188797480  0.0000
  Si     Si        0.671816425105595    0.264314451356409    0.036942167905583  0.0000
  Si     Si        0.836100190656592    0.684859974226284    0.033598153491902  0.0000
  Si     Si        0.339084878816800    0.258908796820827    0.983692234762753  0.0000
  Si     Si        0.173059705932854    0.691726436502611    0.980757840761023  0.0000
  Si     Si        0.352670240250319    0.659870819889310    0.979342642927790  0.0000
  Si     Si        0.158871708291587    0.290846026816263    0.986609682348413  0.0000
  Si     Si        0.657710569990220    0.662567132434174    0.033995645920021  0.0000
  Si     Si        0.850854044578957    0.289715032525459    0.037226558179233  0.0000
  O1     O1        0.086461408005221    0.208439962999406    0.384254148916131  0.0000
  O2     O2        0.408099903778757    0.809401862422439    0.368468491227939  0.0000
  O2     O2        0.908593218506512    0.142565636919699    0.652026081503973  0.0000
  O3     O3        0.592230800725083    0.759117677305905    0.633964692075684  0.0000
  O2     O2        0.901290772119043    0.795726519931325    0.657188844387074  0.0000
  O2     O2        0.624647615060183    0.086500421147848    0.656683881269696  0.0000
  O3     O3        0.136241477072888    0.872554146489474    0.369378170074650  0.0000
  O3     O3        0.399395423930813    0.146455819361430    0.390231519585467  0.0000
  O3     O3        0.987029671635938    0.946165112032604    0.489803763449413  0.0000
  O2     O2        0.518723176916357    0.982923425521875    0.492027933331997  0.0000
  O3     O3        0.006846467375746    0.952938680723309    0.226191870650050  0.0000
  O2     O2        0.506698241154883    0.008572343317004    0.242593411493093  0.0000
  O2     O2        0.031637934302089    0.963845979552734    0.728730643330112  0.0000
  O2     O2        0.486082772274758    0.974787940656882    0.737481016578396  0.0000
  O2     O2        0.625398481100995    0.130016234583694    0.124090745097438  0.0000
  O2     O2        0.883023023408654    0.830912812910203    0.114383621471164  0.0000
  O2     O2        0.382828860096529    0.119958194925162    0.888599899043968  0.0000
  O2     O2        0.127461267170679    0.822272048470475    0.888493474937544  0.0000
  O2     O2        0.408197717793564    0.774808846534145    0.889905200674805  0.0000
  O2     O2        0.104180755969068    0.168111064793393    0.895541428047121  0.0000
  O2     O2        0.600598779119499    0.787132646144804    0.120311857060348  0.0000
  O2     O2        0.908721973597448    0.170779343393018    0.120235465903094  0.0000
  O2     O2        0.511220751037323    0.001057649284175    0.988061716922933  0.0000
  O2     O2        0.994250417542032    0.952534369488681    0.973422324731891  0.0000
  O3     O3        0.134421568241101    0.536578078711509    0.312563551468327  0.0000
  O3     O3        0.381075847140853    0.483768114589252    0.307669637176287  0.0000
  O2     O2        0.868975758993977    0.468984141125454    0.700061406084985  0.0000
  O3     O3        0.640365996493816    0.427632799544927    0.696845835236629  0.0000
  O1     O1        0.248382124600869    0.271398465531148    0.343940693637959  0.0000
  O2     O2        0.265536253675318    0.702478178355574    0.318393953221834  0.0000
  O2     O2        0.762200801862647    0.222761954307873    0.691307601406343  0.0000
  O3     O3        0.754198161129724    0.691775368615687    0.674426819397550  0.0000
  O3     O3        0.145117855361822    0.245103277821086    0.135036288230914  0.0000
  O2     O2        0.367012458730777    0.721947198502194    0.128701123468585  0.0000
  O2     O2        0.862091602332318    0.237590229925723    0.885391006947136  0.0000
  O3     O3        0.646650520658851    0.706518596806387    0.884181626058385  0.0000
  O2     O2        0.839836604736725    0.715862782728594    0.880090782296757  0.0000
  O2     O2        0.663946768821989    0.209383712775068    0.885701186643890  0.0000
  O2     O2        0.165066251026283    0.759278454361974    0.129997513420633  0.0000
  O3     O3        0.348206273795983    0.205747818534298    0.131832261213125  0.0000
  O2     O2        0.637175320671526    0.460051013340650    0.059365317199644  0.0000
  O2     O2        0.871486365400405    0.493529375498998    0.064343755264097  0.0000
  O2     O2        0.373341180865404    0.454003060351747    0.961854824977885  0.0000
  O2     O2        0.138475235676062    0.495359148713972    0.964405601118992  0.0000
  O2     O2        0.761928370187849    0.257036983557256    0.079298095303572  0.0000
  O2     O2        0.746547087869495    0.697217478643663    0.078037454634371  0.0000
  O2     O2        0.248232078369918    0.256310597208537    0.946511185351405  0.0000
  O2     O2        0.263376288228869    0.691934636063333    0.938976156996973  0.0000
