data_c00553.vasp
_audit_creation_method             Generated by GULP
_audit_author_name                 Salvador R. G. Balestra
_symmetry_space_group_name_H-M     'P 1             '
_symmetry_Int_Tables_number        1

loop_
_symmetry_equiv_pos_site_id
_symmetry_equiv_pos_as_xyz
_cell_length_a                       17.1925
_cell_length_b                        7.6292
_cell_length_c                       10.2590
_cell_angle_alpha                   90.9040
_cell_angle_beta                    91.3863
_cell_angle_gamma                   90.2096

loop_
_atom_site_label
_atom_site_type_symbol
_atom_site_fract_x
_atom_site_fract_y
_atom_site_fract_z
_atom_site_charge
  Ge     Ge        0.052090000000021    0.000000000000000    0.372269999999958  0.0000
  Ge     Ge        0.171658923505043    0.287591929946278    0.290915469136559  0.0000
  Ge     Ge        0.358924296859109    0.325283990260766    0.287291808212498  0.0000
  Ge     Ge        0.852496394353653    0.667449626776142    0.036631219066415  0.0000
  Si     Si        0.459379443093160    0.012772597742448    0.365696776403311  0.0000
  Si     Si        0.946987675754199    0.979722614607897    0.624436507508591  0.0000
  Si     Si        0.550650947917509    0.987395469861079    0.631414813326329  0.0000
  Si     Si        0.558715319436693    0.988319986166360    0.112017704546381  0.0000
  Si     Si        0.951576626358692    0.986144471393847    0.109168076922805  0.0000
  Si     Si        0.441237360191484    0.992032898765989    0.872576331116542  0.0000
  Si     Si        0.058478677264678    0.982171920307557    0.867295480840300  0.0000
  Si     Si        0.340860197738442    0.730765593417423    0.271000311119607  0.0000
  Si     Si        0.834813397844253    0.274458511850229    0.720069100978096  0.0000
  Si     Si        0.666446172191785    0.696928302115503    0.725964324673150  0.0000
  Si     Si        0.844499529329745    0.678214170831525    0.724362584690222  0.0000
  Si     Si        0.656442752260740    0.293968827136214    0.718166396397300  0.0000
  Si     Si        0.159178804940008    0.696201223167008    0.274955496444778  0.0000
  Si     Si        0.656427548035100    0.298411860745369    0.022282078724728  0.0000
  Si     Si        0.347760507698193    0.304800411620596    0.975675546690220  0.0000
  Si     Si        0.154604339667125    0.676437441894341    0.974175871968226  0.0000
  Si     Si        0.334176522532148    0.703467302722764    0.966675851924195  0.0000
  Si     Si        0.167547383743113    0.272615626521624    0.981739300577334  0.0000
  Si     Si        0.670214195288681    0.694915606493792    0.032240191576089  0.0000
  Si     Si        0.835559387502865    0.265568707759810    0.026249917261596  0.0000
  O1     O1        0.117496886149903    0.166822175200766    0.393820255252157  0.0000
  O2     O2        0.382772794828605    0.889273840861891    0.349449837278411  0.0000
  O2     O2        0.888509471589947    0.142872013809254    0.640184175805762  0.0000
  O2     O2        0.611009877881391    0.829026311132024    0.649193398519335  0.0000
  O2     O2        0.901431712998717    0.797097754172611    0.640837456419410  0.0000
  O2     O2        0.596857794606195    0.172206866736905    0.634831097872867  0.0000
  O3     O3        0.106082428906027    0.810708797525546    0.366518992022255  0.0000
  O3     O3        0.428691050533362    0.209429840869016    0.373156874172907  0.0000
  O3     O3        0.978787927121346    0.984981949074050    0.480729651013023  0.0000
  O2     O2        0.508763778510962    0.961370713406552    0.492571140727325  0.0000
  O3     O3        0.008821008936777    0.045725933135808    0.222697916822211  0.0000
  O2     O2        0.514052831116679    0.979889374514760    0.244494654365957  0.0000
  O2     O2        0.021836752993847    0.994371844779859    0.722356412161354  0.0000
  O2     O2        0.483817255340904    0.983873826415716    0.736817396404338  0.0000
  O2     O2        0.600545620413175    0.177181789356508    0.104721080064259  0.0000
  O3     O3        0.919643166871397    0.789792178652698    0.126030320787518  0.0000
  O2     O2        0.400667799603333    0.181302278254269    0.885745699073005  0.0000
  O2     O2        0.098141583948719    0.790686916311662    0.881986292707526  0.0000
  O2     O2        0.376903701011988    0.837185399740747    0.872748673860505  0.0000
  O2     O2        0.121220159618938    0.138412128747384    0.885553589387314  0.0000
  O2     O2        0.621396379848986    0.833233916180166    0.114591263115322  0.0000
  O2     O2        0.875215523659704    0.109763472166384    0.105205035114180  0.0000
  O2     O2        0.501619737761722    0.956483789441750    0.989335975481644  0.0000
  O2     O2        0.991145175512567    0.006767334357960    0.969842396184405  0.0000
  O3     O3        0.136918771565907    0.498004717888119    0.297602326689090  0.0000
  O3     O3        0.378505990883720    0.546519748435279    0.306336817247046  0.0000
  O2     O2        0.862526100356356    0.473397470920689    0.695407150415242  0.0000
  O2     O2        0.637682380439617    0.498236334722935    0.694863455662340  0.0000
  O1     O1        0.267490839906003    0.281031690399996    0.338424993655179  0.0000
  O2     O2        0.250445347395517    0.728311305403076    0.309319343916197  0.0000
  O2     O2        0.744415470071474    0.252035103445595    0.675473805704800  0.0000
  O2     O2        0.755225159077220    0.719227522316234    0.681472268076430  0.0000
  O3     O3        0.162219947235954    0.213858123959127    0.129729282532626  0.0000
  O2     O2        0.347103560358689    0.763698543599308    0.116535651266306  0.0000
  O2     O2        0.842372322439229    0.231494406566281    0.871862755553686  0.0000
  O2     O2        0.665099011949742    0.741001866217931    0.879427165607737  0.0000
  O3     O3        0.859614167031413    0.722777548438936    0.874971062958230  0.0000
  O2     O2        0.645379046801541    0.249366708579942    0.869619029246998  0.0000
  O2     O2        0.143346919136487    0.744579845536440    0.122561926329565  0.0000
  O3     O3        0.365452779928321    0.262850200524840    0.124942787584723  0.0000
  O2     O2        0.634529677030484    0.500168414119040    0.050750788684145  0.0000
  O3     O3        0.874886686645717    0.450526119987189    0.062073457251896  0.0000
  O2     O2        0.367820207906933    0.507756385000750    0.946305545332397  0.0000
  O2     O2        0.133404264114295    0.469885730795830    0.963322575491852  0.0000
  O2     O2        0.745602871182760    0.268307675905123    0.065699123493025  0.0000
  O3     O3        0.758182804419013    0.702957294593166    0.083336514961451  0.0000
  O2     O2        0.257267061725957    0.269754989116572    0.940911059851234  0.0000
  O2     O2        0.242713893796517    0.706058556419251    0.930310355507914  0.0000
