data_c00562.vasp
_audit_creation_method             Generated by GULP
_audit_author_name                 Salvador R. G. Balestra
_symmetry_space_group_name_H-M     'P 1             '
_symmetry_Int_Tables_number        1

loop_
_symmetry_equiv_pos_site_id
_symmetry_equiv_pos_as_xyz
_cell_length_a                       17.0963
_cell_length_b                        7.6340
_cell_length_c                       10.3448
_cell_angle_alpha                   90.7689
_cell_angle_beta                    90.4798
_cell_angle_gamma                   89.5427

loop_
_atom_site_label
_atom_site_type_symbol
_atom_site_fract_x
_atom_site_fract_y
_atom_site_fract_z
_atom_site_charge
  Ge     Ge        0.052090000000021    0.000000000000000    0.372269999999958  0.0000
  Ge     Ge        0.157960547988905    0.308533365258928    0.279625324287917  0.0000
  Ge     Ge        0.675012740824241    0.262811987665874    0.021469742254319  0.0000
  Ge     Ge        0.175965587522776    0.698272594756530    0.964564778512408  0.0000
  Si     Si        0.456079063622262    0.972866297744923    0.367329433518246  0.0000
  Si     Si        0.949651530353327    0.981825072883019    0.631861924688953  0.0000
  Si     Si        0.550747902485464    0.974925039167955    0.631465388091593  0.0000
  Si     Si        0.565617658052350    0.979444451062745    0.123409570106931  0.0000
  Si     Si        0.952720611960088    0.979711360712804    0.110280603774889  0.0000
  Si     Si        0.451524461232913    0.971471565133672    0.886205280721168  0.0000
  Si     Si        0.062398980396369    0.980838084000451    0.876392385248992  0.0000
  Si     Si        0.354099076623912    0.665287513420967    0.274887858633146  0.0000
  Si     Si        0.844782575018769    0.290738139370898    0.705260035916448  0.0000
  Si     Si        0.656200162153493    0.670552836400939    0.718711451807728  0.0000
  Si     Si        0.836170904800945    0.690488312308709    0.709430131814841  0.0000
  Si     Si        0.665965879519904    0.264260220241270    0.714879051377161  0.0000
  Si     Si        0.174957252292961    0.719057920029755    0.268444474413530  0.0000
  Si     Si        0.341136818869525    0.267419411039663    0.282167109558724  0.0000
  Si     Si        0.840881048561184    0.690763527638272    0.011424859338212  0.0000
  Si     Si        0.338197167905225    0.259728175273003    0.978734008870539  0.0000
  Si     Si        0.358332363661825    0.653906948903210    0.971607814204466  0.0000
  Si     Si        0.156625201782814    0.292277293115968    0.976447548084993  0.0000
  Si     Si        0.659209862072056    0.666577657435927    0.018292807380482  0.0000
  Si     Si        0.857116614288034    0.295524259043792    0.010107308020051  0.0000
  O1     O1        0.091161634003473    0.204880985958013    0.372142903320905  0.0000
  O2     O2        0.411415021293455    0.788665879388348    0.357358677818663  0.0000
  O2     O2        0.902437447861949    0.166208727854395    0.622657411956762  0.0000
  O2     O2        0.597411927884726    0.790164580449455    0.636078913471021  0.0000
  O2     O2        0.886960260573824    0.824360602578744    0.628009074936454  0.0000
  O2     O2        0.611168146616463    0.136075859064931    0.630437836965517  0.0000
  O3     O3        0.130496193832784    0.858058128398663    0.356559191732743  0.0000
  O2     O2        0.394446398038673    0.132745632390133    0.361654788047049  0.0000
  O3     O3        0.008423269581430    0.957432143426272    0.516791712809178  0.0000
  O2     O2        0.500776091627885    0.981373584394557    0.501953404263774  0.0000
  O3     O3        0.981257978135756    0.970109994989137    0.255348034292723  0.0000
  O2     O2        0.518207970949856    0.987477802135415    0.254180840768462  0.0000
  O2     O2        0.998919762438063    0.978776463630836    0.764024918781331  0.0000
  O2     O2        0.491218328026473    0.994389732816863    0.749255675399411  0.0000
  O3     O3        0.631448150388206    0.125335318897186    0.127396577325737  0.0000
  O2     O2        0.883534594749448    0.838777979205332    0.095121758707699  0.0000
  O2     O2        0.378859360505082    0.107094788968028    0.894907445325587  0.0000
  O3     O3        0.128096482823050    0.833167600122023    0.857449882325278  0.0000
  O2     O2        0.421705796695253    0.771770890083493    0.898792803324409  0.0000
  O2     O2        0.102842474152173    0.171379183153892    0.883486675580873  0.0000
  O2     O2        0.606306462865737    0.789371431861923    0.108945612001549  0.0000
  O2     O2        0.922168442461862    0.176036687028105    0.079165833945931  0.0000
  O2     O2        0.511319394759656    0.023447003096210    0.000064549772770  0.0000
  O2     O2        0.022177239976663    0.930114758907048    0.012187374937589  0.0000
  O3     O3        0.137179286328808    0.528779305264925    0.281969259463599  0.0000
  O2     O2        0.375196058905489    0.463289717774853    0.303265139616802  0.0000
  O2     O2        0.864742227475880    0.492651319708756    0.676043520289354  0.0000
  O2     O2        0.636839026460208    0.465318914031426    0.699447569879923  0.0000
  O3     O3        0.252747627923976    0.262728435307239    0.329991501113690  0.0000
  O2     O2        0.265174109088671    0.703372253463865    0.316064590571870  0.0000
  O2     O2        0.755332839951522    0.249911649162192    0.665313994116675  0.0000
  O2     O2        0.744556399076887    0.709429988057896    0.673694243804774  0.0000
  O3     O3        0.145508398525473    0.231112760483704    0.122492968817420  0.0000
  O2     O2        0.362716124879332    0.705272720362345    0.123289294296339  0.0000
  O2     O2        0.855847049141115    0.253789036293976    0.856929656421151  0.0000
  O2     O2        0.646063409725671    0.722459200856383    0.869260987698251  0.0000
  O2     O2        0.848001530340194    0.734978110312781    0.860565321359813  0.0000
  O3     O3        0.663017264790246    0.202276598805969    0.861674598027002  0.0000
  O3     O3        0.172156090260664    0.779559297431627    0.120623655711902  0.0000
  O2     O2        0.343324843277377    0.215434592102395    0.130332840153987  0.0000
  O3     O3        0.635228980166428    0.469723533461211    0.040802773290719  0.0000
  O2     O2        0.879039576543230    0.499378250384104    0.036819384201640  0.0000
  O2     O2        0.378792101120433    0.447136159885756    0.952016532498149  0.0000
  O3     O3        0.133881218234903    0.493291619829484    0.958737644135172  0.0000
  O3     O3        0.772437264604005    0.258434642856566    0.064950520368919  0.0000
  O2     O2        0.750739802775106    0.689197760836118    0.053493774304599  0.0000
  O2     O2        0.247723677091794    0.269689597692547    0.936718740563860  0.0000
  O3     O3        0.272441825855410    0.689513213522021    0.917112256277241  0.0000
