data_c00525.vasp
_audit_creation_method             Generated by GULP
_audit_author_name                 Salvador R. G. Balestra
_symmetry_space_group_name_H-M     'P 1             '
_symmetry_Int_Tables_number        1

loop_
_symmetry_equiv_pos_site_id
_symmetry_equiv_pos_as_xyz
_cell_length_a                       17.1899
_cell_length_b                        7.6047
_cell_length_c                       10.2989
_cell_angle_alpha                   91.3435
_cell_angle_beta                    90.2193
_cell_angle_gamma                   89.5059

loop_
_atom_site_label
_atom_site_type_symbol
_atom_site_fract_x
_atom_site_fract_y
_atom_site_fract_z
_atom_site_charge
  Ge     Ge        0.052090000000021    0.000000000000000    0.372269999999958  0.0000
  Ge     Ge        0.156430515330005    0.313867652269055    0.296573719088715  0.0000
  Ge     Ge        0.656527609736472    0.659654078413250    0.723613515414242  0.0000
  Ge     Ge        0.354857237868770    0.644699886469368    0.974458133571202  0.0000
  Si     Si        0.455749218259636    0.981421980722694    0.378389631730468  0.0000
  Si     Si        0.954134530315528    0.968547243963903    0.633614620887770  0.0000
  Si     Si        0.550273747060340    0.967007080048444    0.640233864833619  0.0000
  Si     Si        0.561164118754882    0.978230574049931    0.131168861601707  0.0000
  Si     Si        0.947734137055677    0.977204018545244    0.111288447022735  0.0000
  Si     Si        0.448412303823774    0.960116679655680    0.890926832552742  0.0000
  Si     Si        0.060992889762608    0.977188193358634    0.876233679095458  0.0000
  Si     Si        0.356337728901707    0.671385292827136    0.282059570713117  0.0000
  Si     Si        0.848634912315346    0.275649482754019    0.729501379500897  0.0000
  Si     Si        0.838000006192787    0.679836927784902    0.726173218080207  0.0000
  Si     Si        0.669296915338116    0.246847139214294    0.729295680640939  0.0000
  Si     Si        0.176800135881343    0.721202331284791    0.281800528028505  0.0000
  Si     Si        0.338531482209863    0.269764008129634    0.292559197138797  0.0000
  Si     Si        0.670379922841863    0.262454192899955    0.032230601377039  0.0000
  Si     Si        0.834684796281817    0.686709485362730    0.032227178444921  0.0000
  Si     Si        0.333652237875584    0.242659870143543    0.987452611163918  0.0000
  Si     Si        0.172468848762141    0.689412632589186    0.978346334747568  0.0000
  Si     Si        0.154653489473201    0.288762127469125    0.989399171877895  0.0000
  Si     Si        0.656399988385858    0.663757973515093    0.033061309204932  0.0000
  Si     Si        0.849816653580175    0.289910718800278    0.032651745257444  0.0000
  O1     O1        0.088472554814863    0.207473145059065    0.385831013016911  0.0000
  O2     O2        0.413760756871388    0.792736970618206    0.368579815226826  0.0000
  O2     O2        0.906738374870566    0.152127671887477    0.646876526810024  0.0000
  O3     O3        0.587525366140368    0.773932032239790    0.637868917273189  0.0000
  O2     O2        0.897176489147007    0.805761309290961    0.655298202128060  0.0000
  O2     O2        0.622676276371543    0.101052074789220    0.646953199613785  0.0000
  O3     O3        0.135627803375651    0.870343437905585    0.366614623013476  0.0000
  O2     O2        0.392143529051622    0.137142932266540    0.372327114703878  0.0000
  O3     O3        0.987263301526939    0.949779656034015    0.490623941955298  0.0000
  O2     O2        0.499003621892017    0.999827855727747    0.514513303918984  0.0000
  O3     O3        0.005007275841978    0.953779317999717    0.228015896235863  0.0000
  O2     O2        0.520110933004606    0.001909417331630    0.268340528797681  0.0000
  O2     O2        0.027778412013248    0.967358460237271    0.730660825994850  0.0000
  O2     O2        0.494462915320138    0.005186980995960    0.762396598253257  0.0000
  O2     O2        0.626220038141968    0.128655222080894    0.122954379072423  0.0000
  O2     O2        0.880856571389574    0.830138857372289    0.116430787507870  0.0000
  O2     O2        0.371067892521304    0.081598987632864    0.905484344779265  0.0000
  O2     O2        0.124354108699591    0.821881282585107    0.889291523981266  0.0000
  O3     O3        0.420307133751525    0.760205738763329    0.883892664347313  0.0000
  O2     O2        0.098953426943739    0.168678309344185    0.899100046888650  0.0000
  O2     O2        0.600096329680476    0.784384870128869    0.122730687628344  0.0000
  O2     O2        0.907084503464943    0.170774664957081    0.117975329514466  0.0000
  O2     O2        0.500357993248353    0.005789745879347    0.016115723049070  0.0000
  O2     O2        0.991574591652484    0.946626442727689    0.975379832858420  0.0000
  O3     O3        0.137946002334268    0.535288492878969    0.309843933617553  0.0000
  O2     O2        0.373935240636906    0.466051351954801    0.307092085394401  0.0000
  O2     O2        0.865797850951713    0.478381806086871    0.699250829854918  0.0000
  O3     O3        0.638080621980721    0.439148852047172    0.699411697045389  0.0000
  O3     O3        0.251153371345849    0.268467147388881    0.344272308423432  0.0000
  O2     O2        0.267463811752294    0.712405915253515    0.321718716467472  0.0000
  O2     O2        0.760074639810697    0.231583241932818    0.690233434748092  0.0000
  O3     O3        0.750553444502677    0.704240073170093    0.675844650041199  0.0000
  O3     O3        0.142547016947812    0.238929394997471    0.137495234489925  0.0000
  O3     O3        0.369580097129003    0.714902005300976    0.133033981487144  0.0000
  O2     O2        0.862046485407388    0.239314946721823    0.881333654182692  0.0000
  O3     O3        0.643575827355190    0.717145594530886    0.885385765493657  0.0000
  O2     O2        0.837930945710545    0.724394704863989    0.879662989378894  0.0000
  O2     O2        0.660847077793992    0.205938218864336    0.881727148780222  0.0000
  O2     O2        0.171351544772422    0.758744029318869    0.127668277003421  0.0000
  O2     O2        0.337792084787440    0.209743556915215    0.141358298158533  0.0000
  O2     O2        0.635543777669000    0.459309795403118    0.052871478817480  0.0000
  O2     O2        0.870631590387432    0.493731329488077    0.060008434616281  0.0000
  O3     O3        0.375602361292680    0.423473196328968    0.955753598337869  0.0000
  O2     O2        0.134501442321741    0.494747944911759    0.969383508693171  0.0000
  O2     O2        0.760850443270192    0.256681785209650    0.072166355992362  0.0000
  O2     O2        0.745300252602615    0.695550492698074    0.076521019347239  0.0000
  O2     O2        0.243585234698009    0.255303290743287    0.946106787181723  0.0000
  O3     O3        0.259936541107035    0.681439289260870    0.927812410779955  0.0000
