data_c00502.vasp
_audit_creation_method             Generated by GULP
_audit_author_name                 Salvador R. G. Balestra
_symmetry_space_group_name_H-M     'P 1             '
_symmetry_Int_Tables_number        1

loop_
_symmetry_equiv_pos_site_id
_symmetry_equiv_pos_as_xyz
_cell_length_a                       17.2080
_cell_length_b                        7.6399
_cell_length_c                       10.2008
_cell_angle_alpha                   89.6509
_cell_angle_beta                    90.5856
_cell_angle_gamma                   90.0582

loop_
_atom_site_label
_atom_site_type_symbol
_atom_site_fract_x
_atom_site_fract_y
_atom_site_fract_z
_atom_site_charge
  Ge     Ge        0.052090000000021    0.000000000000000    0.372269999999958  0.0000
  Ge     Ge        0.175178640224674    0.285168781952375    0.287626524388136  0.0000
  Ge     Ge        0.340861655558092    0.745396152947100    0.287407012667583  0.0000
  Ge     Ge        0.673318336964789    0.720131818515391    0.043007004908459  0.0000
  Si     Si        0.458510733104307    0.031256546414167    0.374263541140695  0.0000
  Si     Si        0.951889370388723    0.010935474902511    0.630460948304888  0.0000
  Si     Si        0.557384391422032    0.023742330052118    0.632716288305490  0.0000
  Si     Si        0.559756591335226    0.008241097088579    0.120499113398888  0.0000
  Si     Si        0.955607004347389    0.008894414689412    0.104014130422689  0.0000
  Si     Si        0.449444111108838    0.020303920089987    0.876658024519612  0.0000
  Si     Si        0.066372980099195    0.009322293177841    0.864789538377309  0.0000
  Si     Si        0.841646558411201    0.307939169022885    0.727469087941109  0.0000
  Si     Si        0.669012080575943    0.728851423471496    0.731367688018205  0.0000
  Si     Si        0.845904109301893    0.707673670003484    0.732251127335048  0.0000
  Si     Si        0.663605205416646    0.322401871787112    0.729057197389018  0.0000
  Si     Si        0.159872955408583    0.702118927163934    0.284334825033046  0.0000
  Si     Si        0.355062956726262    0.333008487373742    0.291245934085895  0.0000
  Si     Si        0.661456002622631    0.316340373954228    0.034122919809862  0.0000
  Si     Si        0.853627628223398    0.694274816218110    0.042386642203157  0.0000
  Si     Si        0.354355361861633    0.334018545345963    0.982739269819155  0.0000
  Si     Si        0.160189374900332    0.698299074042525    0.979209906217759  0.0000
  Si     Si        0.342028043104210    0.731299818619188    0.976821251842382  0.0000
  Si     Si        0.173312931815510    0.296463759908470    0.976972728730616  0.0000
  Si     Si        0.841133617228587    0.299427784043552    0.034625563073019  0.0000
  O1     O1        0.120739135580670    0.160880781541766    0.389933317952450  0.0000
  O3     O3        0.394455848317659    0.880385844333751    0.387052200472385  0.0000
  O2     O2        0.896918030289189    0.179035470904743    0.648543132995826  0.0000
  O2     O2        0.613003636997242    0.855459152214822    0.647617863736771  0.0000
  O2     O2        0.905463562090239    0.833006132451930    0.659016866675127  0.0000
  O2     O2        0.606014086657667    0.203275092961777    0.644025963112732  0.0000
  O3     O3        0.097244251391966    0.799007176669516    0.371947503077261  0.0000
  O2     O2        0.418192902361394    0.221688422381666    0.374234770280054  0.0000
  O3     O3        0.977892900115788    0.008256653700881    0.481787367499846  0.0000
  O2     O2        0.522272865803419    0.018742620760363    0.487794843235017  0.0000
  O3     O3        0.014945507144146    0.043050667644584    0.217891546205245  0.0000
  O2     O2        0.498874957345436    0.003060925319472    0.235481738333487  0.0000
  O2     O2        0.030694179593125    0.018915204501819    0.718404596044595  0.0000
  O2     O2        0.486292727863019    0.020243164056615    0.733488225065014  0.0000
  O2     O2        0.607247197407057    0.190183020977114    0.118843444807453  0.0000
  O2     O2        0.917660484861312    0.814676364974145    0.113826482533400  0.0000
  O2     O2        0.411480251402028    0.209892842410680    0.902338167196831  0.0000
  O2     O2        0.106684669876087    0.820220226518358    0.886738071891610  0.0000
  O2     O2        0.384050094966967    0.868971553644836    0.880972568430494  0.0000
  O2     O2        0.129397974813423    0.164381198629455    0.878734635646293  0.0000
  O3     O3        0.620498713470318    0.853430258002546    0.141589892429546  0.0000
  O2     O2        0.886851582427692    0.152041735863662    0.115069576618813  0.0000
  O2     O2        0.516197270810701    0.976996171429542    0.982295280555075  0.0000
  O2     O2        0.996242444759842    0.035619245127404    0.964204418625599  0.0000
  O3     O3        0.162360451668564    0.502305573642335    0.325460751611938  0.0000
  O3     O3        0.355859705703374    0.531060324783593    0.337173983979583  0.0000
  O2     O2        0.867988060853383    0.507405053099634    0.698817247718074  0.0000
  O2     O2        0.642829972250620    0.527097257449735    0.710747159527372  0.0000
  O3     O3        0.272455381943066    0.241157464017620    0.311251670994296  0.0000
  O3     O3        0.243585535881001    0.792683954979467    0.303679130262751  0.0000
  O2     O2        0.751757758055846    0.285185638168224    0.683449635272794  0.0000
  O2     O2        0.758205969429864    0.749618379260343    0.683774375111855  0.0000
  O3     O3        0.151434097315321    0.248880197597424    0.124407323112245  0.0000
  O3     O3        0.366571174764089    0.770652176205330    0.125091909985705  0.0000
  O2     O2        0.848624139991889    0.262563090595894    0.880539726165244  0.0000
  O3     O3        0.664924541639875    0.784078138725800    0.881399280311706  0.0000
  O2     O2        0.851194994346637    0.737764840557750    0.887492663528735  0.0000
  O2     O2        0.653258569829326    0.268550434352886    0.880570456990359  0.0000
  O2     O2        0.136345573755299    0.725302053361557    0.129945971035737  0.0000
  O2     O2        0.374712524734849    0.322510477197145    0.136264555103547  0.0000
  O3     O3        0.636017285009660    0.512004826545434    0.059732922776791  0.0000
  O2     O2        0.876350373723848    0.491034269378405    0.067292562729208  0.0000
  O2     O2        0.366643279282524    0.534440490066654    0.935827307869140  0.0000
  O2     O2        0.147630737017442    0.495446431209409    0.941220188385238  0.0000
  O2     O2        0.751489357213014    0.292312945577518    0.077047643709099  0.0000
  O3     O3        0.768566144619232    0.728919892395570    0.096389187297846  0.0000
  O2     O2        0.265632920954751    0.275541603592145    0.957765367291907  0.0000
  O2     O2        0.249497969842195    0.752767363592020    0.960773639743857  0.0000
