data_c00561.vasp
_audit_creation_method             Generated by GULP
_audit_author_name                 Salvador R. G. Balestra
_symmetry_space_group_name_H-M     'P 1             '
_symmetry_Int_Tables_number        1

loop_
_symmetry_equiv_pos_site_id
_symmetry_equiv_pos_as_xyz
_cell_length_a                       17.2072
_cell_length_b                        7.6113
_cell_length_c                       10.2254
_cell_angle_alpha                   90.5354
_cell_angle_beta                    90.7357
_cell_angle_gamma                   90.0208

loop_
_atom_site_label
_atom_site_type_symbol
_atom_site_fract_x
_atom_site_fract_y
_atom_site_fract_z
_atom_site_charge
  Ge     Ge        0.052090000000021    0.000000000000000    0.372269999999958  0.0000
  Ge     Ge        0.173937520935193    0.285194146215085    0.282443461209691  0.0000
  Ge     Ge        0.654622108361514    0.337905898519205    0.039706115395071  0.0000
  Ge     Ge        0.350679653111232    0.336988158420798    0.964470054726687  0.0000
  Si     Si        0.455984228592014    0.011837639462537    0.371398940520532  0.0000
  Si     Si        0.948342789303057    0.994210886831302    0.627606645965192  0.0000
  Si     Si        0.553208898419193    0.002447142361664    0.635435359018572  0.0000
  Si     Si        0.558391937330746    0.023301940973508    0.126001938224939  0.0000
  Si     Si        0.949990390291592    0.017812200077631    0.107263789738420  0.0000
  Si     Si        0.446910340726569    0.020007110880513    0.880552313089105  0.0000
  Si     Si        0.058635901434185    0.007397155051398    0.868321307848579  0.0000
  Si     Si        0.339476787431714    0.725730081045834    0.282301500264533  0.0000
  Si     Si        0.834684843822822    0.288729817726862    0.732375495030308  0.0000
  Si     Si        0.667761689520389    0.715562372084956    0.719494580758347  0.0000
  Si     Si        0.846431188929551    0.690842875529907    0.722201647036639  0.0000
  Si     Si        0.657130064719775    0.309930237235301    0.728121864921436  0.0000
  Si     Si        0.159342870846350    0.696714102772466    0.287672104626633  0.0000
  Si     Si        0.355133036814992    0.320850464220901    0.277694362071201  0.0000
  Si     Si        0.850242796287155    0.703875133225057    0.027180083410101  0.0000
  Si     Si        0.155080648209593    0.701558398942936    0.985710572828957  0.0000
  Si     Si        0.334561286343576    0.740354692705808    0.977212078798924  0.0000
  Si     Si        0.169229090957220    0.297557873672271    0.971609839347158  0.0000
  Si     Si        0.670611573376376    0.741774575419232    0.024642718219361  0.0000
  Si     Si        0.835848774550030    0.308445627301874    0.040466795581795  0.0000
  O1     O1        0.121870382793633    0.159056991405905    0.385042774925574  0.0000
  O2     O2        0.389078096022402    0.863018292507652    0.369052180985075  0.0000
  O2     O2        0.888687659118149    0.151027474358273    0.658499635463805  0.0000
  O2     O2        0.615416743762589    0.843343638242692    0.630762424308582  0.0000
  O2     O2        0.904548490942555    0.807219025969573    0.637801513314420  0.0000
  O2     O2        0.598058874867339    0.188084838189074    0.644910611516266  0.0000
  O3     O3        0.102092767823867    0.803815862265156    0.379335026087771  0.0000
  O2     O2        0.418820170815134    0.204911445835869    0.355429279826188  0.0000
  O3     O3        0.978023712362537    0.012751003605241    0.481935585272269  0.0000
  O2     O2        0.500990204604593    0.001327275955996    0.507032058761439  0.0000
  O3     O3        0.012714739538163    0.035551984723921    0.218782044684222  0.0000
  O2     O2        0.518414546887118    0.971850369625240    0.259962867889407  0.0000
  O2     O2        0.024541658782596    0.001614779940201    0.721254809371892  0.0000
  O2     O2        0.495302322639520    0.970585668588703    0.754111804469084  0.0000
  O3     O3        0.588122402677708    0.222378182909615    0.128902492680190  0.0000
  O2     O2        0.906273675226381    0.829490534481934    0.112532852960640  0.0000
  O3     O3        0.415902311101559    0.217549432658671    0.873439451730464  0.0000
  O2     O2        0.098978689058523    0.819947501336664    0.896721004957530  0.0000
  O2     O2        0.371447456624256    0.894230520272234    0.891865636354856  0.0000
  O2     O2        0.118975282132119    0.168468314573046    0.878046566724496  0.0000
  O2     O2        0.633984551486578    0.901134702532287    0.105680489913928  0.0000
  O2     O2        0.886929173861865    0.173049251282111    0.123315430202840  0.0000
  O2     O2        0.498913118878979    0.986103453826275    0.008163019913291  0.0000
  O2     O2        0.988753149302331    0.042061865715757    0.966498519052748  0.0000
  O3     O3        0.139210460717725    0.495425919044797    0.301004050458715  0.0000
  O2     O2        0.372244687025240    0.528797367006046    0.300478429314928  0.0000
  O2     O2        0.864519873826211    0.484854667763603    0.699380731388564  0.0000
  O2     O2        0.638990741597151    0.514980662147797    0.701057797284885  0.0000
  O3     O3        0.270589705654766    0.275893530710583    0.329141414020383  0.0000
  O2     O2        0.249801416704211    0.733250452579841    0.326246612456929  0.0000
  O2     O2        0.745334698257615    0.266446938910660    0.684787134720887  0.0000
  O2     O2        0.757762490460430    0.731111378510649    0.678472530144612  0.0000
  O3     O3        0.168265659127698    0.226086876846796    0.118517641915474  0.0000
  O2     O2        0.344956052831126    0.781729562322372    0.131424845364192  0.0000
  O2     O2        0.835823428883591    0.256691180050811    0.887146104996957  0.0000
  O2     O2        0.660648069605562    0.775774371715216    0.869929977709639  0.0000
  O2     O2        0.860440654997553    0.742458523794607    0.873715285216443  0.0000
  O3     O3        0.644558384834577    0.269084203898035    0.879120515459778  0.0000
  O2     O2        0.145374501592772    0.759075378758159    0.137031458197437  0.0000
  O3     O3        0.361485537473006    0.274857387429279    0.125160180101057  0.0000
  O3     O3        0.631745808596498    0.557309736869193    0.057624505153985  0.0000
  O2     O2        0.872374219102257    0.503372819601275    0.059593339843102  0.0000
  O3     O3        0.373652579774409    0.555378552358111    0.944100167120046  0.0000
  O2     O2        0.133775082029291    0.495934444299469    0.968059152223584  0.0000
  O3     O3        0.748937924595738    0.304778744549065    0.091816014073005  0.0000
  O2     O2        0.761192253086376    0.736690587316867    0.064960602851759  0.0000
  O3     O3        0.255686151754521    0.301757962424559    0.917028888770433  0.0000
  O2     O2        0.243316760672535    0.731316996424190    0.941142483393917  0.0000
