data_c00532.vasp
_audit_creation_method             Generated by GULP
_audit_author_name                 Salvador R. G. Balestra
_symmetry_space_group_name_H-M     'P 1             '
_symmetry_Int_Tables_number        1

loop_
_symmetry_equiv_pos_site_id
_symmetry_equiv_pos_as_xyz
_cell_length_a                       17.2578
_cell_length_b                        7.6137
_cell_length_c                       10.1958
_cell_angle_alpha                   90.8368
_cell_angle_beta                    91.1881
_cell_angle_gamma                   89.2853

loop_
_atom_site_label
_atom_site_type_symbol
_atom_site_fract_x
_atom_site_fract_y
_atom_site_fract_z
_atom_site_charge
  Ge     Ge        0.052090000000021    0.000000000000000    0.372269999999958  0.0000
  Ge     Ge        0.174134272842724    0.279482133445416    0.290907972968336  0.0000
  Ge     Ge        0.849015952299811    0.656727521286969    0.714858759493091  0.0000
  Ge     Ge        0.856994375457778    0.656116775333319    0.040154869270357  0.0000
  Si     Si        0.458452176571701    0.996296099840608    0.363580591132542  0.0000
  Si     Si        0.950267664093590    0.963262110876165    0.625694803750886  0.0000
  Si     Si        0.549515257655450    0.985481126332669    0.632770163489624  0.0000
  Si     Si        0.560495200047251    0.988258854070660    0.111384629237262  0.0000
  Si     Si        0.952680431346279    0.978286798450092    0.107625005686445  0.0000
  Si     Si        0.442945265565960    0.984653248397447    0.873994184530465  0.0000
  Si     Si        0.061182059020383    0.983045444190130    0.867342857919795  0.0000
  Si     Si        0.341712653632178    0.711165886659683    0.280865719969471  0.0000
  Si     Si        0.831623324277107    0.255334768015291    0.723226415234304  0.0000
  Si     Si        0.669014734851137    0.692637177284286    0.723951633951093  0.0000
  Si     Si        0.654984765468928    0.287696801745002    0.726042162668232  0.0000
  Si     Si        0.161461867183292    0.693394518503226    0.283806925712710  0.0000
  Si     Si        0.354983706123972    0.307056817083733    0.287001835288468  0.0000
  Si     Si        0.655586531460311    0.300024126466370    0.032058117617358  0.0000
  Si     Si        0.346907526286034    0.298999466318849    0.978401357675584  0.0000
  Si     Si        0.157804131403063    0.677502802441378    0.980836712120066  0.0000
  Si     Si        0.337103159140677    0.697249452831960    0.975202041597060  0.0000
  Si     Si        0.168474836633528    0.272020451442790    0.980711843885112  0.0000
  Si     Si        0.675836452757554    0.696522978833551    0.034123804382777  0.0000
  Si     Si        0.832790975830906    0.262193564350242    0.037318252059356  0.0000
  O1     O1        0.119662494643306    0.160430503863801    0.392632577231083  0.0000
  O2     O2        0.391345088252480    0.850292723004615    0.365033453023410  0.0000
  O2     O2        0.879531412379679    0.090630205304784    0.668239717343002  0.0000
  O2     O2        0.608658999087229    0.823729893669050    0.654206365240837  0.0000
  O3     O3        0.916552471016910    0.769699718719397    0.627539972661643  0.0000
  O2     O2        0.593512942396947    0.170262379949303    0.645772859421208  0.0000
  O3     O3        0.104488756414069    0.805441795756427    0.372823612186575  0.0000
  O2     O2        0.419261268960509    0.190267934513361    0.363447913418456  0.0000
  O3     O3        0.978713936245020    0.006165651258676    0.482457257167558  0.0000
  O2     O2        0.514112875947204    0.972118861811678    0.487872379035251  0.0000
  O3     O3        0.008038726024854    0.043075670184060    0.222330429960595  0.0000
  O2     O2        0.509732954499928    0.965370174396744    0.237219093206442  0.0000
  O2     O2        0.025899506133284    0.987189095123402    0.720760809333212  0.0000
  O2     O2        0.478298243205442    0.976783967600190    0.730919272512402  0.0000
  O2     O2        0.596666658303433    0.183315207752961    0.113024908478563  0.0000
  O3     O3        0.925455048458787    0.779801701676297    0.125307325705911  0.0000
  O2     O2        0.402222469396529    0.173955256386459    0.894087586492849  0.0000
  O2     O2        0.102973008454709    0.793723078245863    0.886777768123132  0.0000
  O2     O2        0.380110586797979    0.830822584848416    0.882775357112114  0.0000
  O2     O2        0.120966008969210    0.143147223527119    0.883263399574027  0.0000
  O2     O2        0.628100176942869    0.842127101453517    0.114111868659815  0.0000
  O2     O2        0.872917485305243    0.092439225313694    0.100044120217832  0.0000
  O2     O2        0.509998537367132    0.952386947878075    0.980912873289836  0.0000
  O2     O2        0.992516914948774    0.007623651276622    0.968452339242178  0.0000
  O3     O3        0.143474063090480    0.493429401764330    0.306648186856165  0.0000
  O2     O2        0.370724254953517    0.513695788352762    0.312629647820981  0.0000
  O3     O3        0.862832636122049    0.437162972994693    0.671620432062302  0.0000
  O2     O2        0.640037224110838    0.493120966219951    0.698335371861276  0.0000
  O3     O3        0.270706293736587    0.260744530879255    0.335605909729011  0.0000
  O2     O2        0.251707169539839    0.733850501017471    0.317899647994094  0.0000
  O2     O2        0.741262088831579    0.231549777127566    0.681547905231601  0.0000
  O3     O3        0.754482463253921    0.712529240975890    0.670004840704962  0.0000
  O3     O3        0.161554060023835    0.210577283756856    0.128803750837905  0.0000
  O2     O2        0.351187603002238    0.750365394411940    0.127106444797354  0.0000
  O2     O2        0.836750504463935    0.268754598437503    0.880167921180140  0.0000
  O2     O2        0.675453010930870    0.735476918805915    0.879085214184943  0.0000
  O1     O1        0.867916393800935    0.697833921702737    0.877308466216433  0.0000
  O2     O2        0.644525521007533    0.248378336299842    0.879243208998988  0.0000
  O2     O2        0.144759483783429    0.741731558902255    0.130545563761189  0.0000
  O2     O2        0.359196292918508    0.261019370340019    0.132090246108685  0.0000
  O2     O2        0.637633328057537    0.505664382965016    0.057207928438581  0.0000
  O3     O3        0.873605551049907    0.439983733128428    0.084757806257704  0.0000
  O2     O2        0.368552544556887    0.499758501467769    0.948183641101746  0.0000
  O2     O2        0.136070757946893    0.472258890131532    0.965684818174659  0.0000
  O2     O2        0.743360648134414    0.257531463374647    0.079146428695986  0.0000
  O3     O3        0.762969305881090    0.700977033185110    0.086363912545615  0.0000
  O2     O2        0.257844867007411    0.264096246972194    0.938160845709747  0.0000
  O2     O2        0.245995204463193    0.706786590904175    0.940565420002998  0.0000
