data_c00519.vasp
_audit_creation_method             Generated by GULP
_audit_author_name                 Salvador R. G. Balestra
_symmetry_space_group_name_H-M     'P 1             '
_symmetry_Int_Tables_number        1

loop_
_symmetry_equiv_pos_site_id
_symmetry_equiv_pos_as_xyz
_cell_length_a                       17.2857
_cell_length_b                        7.6425
_cell_length_c                       10.1887
_cell_angle_alpha                   90.3462
_cell_angle_beta                    91.1588
_cell_angle_gamma                   90.9632

loop_
_atom_site_label
_atom_site_type_symbol
_atom_site_fract_x
_atom_site_fract_y
_atom_site_fract_z
_atom_site_charge
  Ge     Ge        0.052090000000021    0.000000000000000    0.372269999999958  0.0000
  Ge     Ge        0.176971816356371    0.280386201571205    0.282167973958263  0.0000
  Ge     Ge        0.659723425121349    0.709316326530462    0.718336442318563  0.0000
  Ge     Ge        0.159727048509584    0.698604547335676    0.287332825096743  0.0000
  Si     Si        0.459187891904762    0.036056691100774    0.374658822359031  0.0000
  Si     Si        0.950045619648554    0.019180144810149    0.624946664571914  0.0000
  Si     Si        0.549472940593782    0.006288754416299    0.641877091344680  0.0000
  Si     Si        0.565179692095539    0.015271248420090    0.135442995209892  0.0000
  Si     Si        0.953948793879941    0.032752816962150    0.102962151289701  0.0000
  Si     Si        0.447253921815922    0.032266511645651    0.896123033046271  0.0000
  Si     Si        0.062854971150410    0.009389334237574    0.862883015577199  0.0000
  Si     Si        0.341705026659719    0.739650885725032    0.283734826886521  0.0000
  Si     Si        0.843900528936505    0.317068071081418    0.727492192834123  0.0000
  Si     Si        0.841214985855641    0.718831371265091    0.719836074100896  0.0000
  Si     Si        0.665641754216388    0.299042938569537    0.726793983336992  0.0000
  Si     Si        0.356607962505159    0.339104125886539    0.279762134683087  0.0000
  Si     Si        0.668244726165243    0.317543973317757    0.033664607329988  0.0000
  Si     Si        0.844742234322331    0.726384932880062    0.029336447700336  0.0000
  Si     Si        0.349101172823413    0.343087871567994    0.970131766527731  0.0000
  Si     Si        0.158293307251958    0.706404306750233    0.977432887645015  0.0000
  Si     Si        0.335952756319548    0.737035496927085    0.974404510831381  0.0000
  Si     Si        0.172207049501066    0.300870475946552    0.971408767482758  0.0000
  Si     Si        0.666614427348398    0.720040151484551    0.030554042356387  0.0000
  Si     Si        0.846105758995663    0.329402133595208    0.034729711351678  0.0000
  O1     O1        0.130202062788647    0.141055220789314    0.383046217603761  0.0000
  O2     O2        0.395939851776727    0.880673523873272    0.358810285454580  0.0000
  O2     O2        0.900079027086749    0.190891241609174    0.650567524064783  0.0000
  O3     O3        0.593131856187206    0.824819704703898    0.628583468397064  0.0000
  O2     O2        0.898901897962793    0.843684824870468    0.641518033521447  0.0000
  O2     O2        0.615665624627848    0.157271555327750    0.645082979877043  0.0000
  O1     O1        0.092730505399063    0.799149468599593    0.380859254052906  0.0000
  O2     O2        0.422234112690820    0.224702884945975    0.349487032564940  0.0000
  O3     O3        0.977651214559893    0.029700420788199    0.477399923779937  0.0000
  O2     O2        0.490348566635807    0.035142069538218    0.522780082495303  0.0000
  O3     O3        0.017089779939122    0.040373836666984    0.214915387794670  0.0000
  O2     O2        0.531008927619882    0.008791217484955    0.279831743457498  0.0000
  O2     O2        0.027667272694122    0.012284507021891    0.715563761181682  0.0000
  O2     O2        0.501398052087797    0.011663993915402    0.774034793674035  0.0000
  O2     O2        0.616892464983945    0.191314318455271    0.122456894050622  0.0000
  O2     O2        0.899784035912462    0.858404372400159    0.112084533609560  0.0000
  O2     O2        0.406884437051062    0.221353240582873    0.890307161368776  0.0000
  O2     O2        0.102331916425934    0.821032501932730    0.884506879246691  0.0000
  O2     O2        0.381770009966625    0.879818942949878    0.890716386975706  0.0000
  O2     O2        0.123868621732581    0.170803040612185    0.874595185756132  0.0000
  O2     O2        0.616259418196677    0.842808250335110    0.122083544234840  0.0000
  O2     O2        0.900600139515282    0.203451086980189    0.118276596452755  0.0000
  O2     O2        0.495571735239489    0.012845769306269    0.030214565524152  0.0000
  O2     O2        0.993370014575819    0.036236664683803    0.961698606244548  0.0000
  O1     O1        0.140007713196378    0.483337843408350    0.303240486610909  0.0000
  O2     O2        0.373242373874060    0.544386912641969    0.310166844541048  0.0000
  O2     O2        0.864932970820559    0.517864354994094    0.693465145691325  0.0000
  O3     O3        0.637513941738187    0.491149702288272    0.694803602951829  0.0000
  O3     O3        0.273497023456693    0.284347464093050    0.330631636473537  0.0000
  O3     O3        0.254850939188205    0.751821685824622    0.332523494062953  0.0000
  O2     O2        0.754867366531267    0.277323074916590    0.685891967374172  0.0000
  O3     O3        0.754061265410933    0.747841755429703    0.671812193405520  0.0000
  O3     O3        0.168040842876316    0.226065620652214    0.116880617497918  0.0000
  O2     O2        0.342925063367521    0.779943677052792    0.128658479953901  0.0000
  O2     O2        0.854009588739298    0.283450008882805    0.881798748313054  0.0000
  O3     O3        0.652383572937693    0.770956076538575    0.880720744731009  0.0000
  O2     O2        0.849295907649830    0.763104430620671    0.874467399432765  0.0000
  O2     O2        0.657034797968994    0.262025263627513    0.881919526074645  0.0000
  O3     O3        0.147670597566540    0.766922333887652    0.125624846458326  0.0000
  O2     O2        0.357185677303500    0.302536658185675    0.123915922269882  0.0000
  O2     O2        0.641849316998657    0.517368504259256    0.052713068883906  0.0000
  O2     O2        0.872229150413550    0.530232054641814    0.062053858043456  0.0000
  O2     O2        0.370733918842249    0.546025202770140    0.943141111394947  0.0000
  O2     O2        0.138393321867478    0.498112716759523    0.965164855038203  0.0000
  O2     O2        0.757715933683736    0.299586574076784    0.077391208255841  0.0000
  O2     O2        0.756492201295667    0.749358930752732    0.071951930286728  0.0000
  O2     O2        0.260784452345028    0.304525198824802    0.923835213752856  0.0000
  O2     O2        0.246077037528728    0.740388866385188    0.931437894203583  0.0000
