data_c00512.vasp
_audit_creation_method             Generated by GULP
_audit_author_name                 Salvador R. G. Balestra
_symmetry_space_group_name_H-M     'P 1             '
_symmetry_Int_Tables_number        1

loop_
_symmetry_equiv_pos_site_id
_symmetry_equiv_pos_as_xyz
_cell_length_a                       17.1919
_cell_length_b                        7.6305
_cell_length_c                       10.3096
_cell_angle_alpha                   90.3266
_cell_angle_beta                    90.5722
_cell_angle_gamma                   89.5176

loop_
_atom_site_label
_atom_site_type_symbol
_atom_site_fract_x
_atom_site_fract_y
_atom_site_fract_z
_atom_site_charge
  Ge     Ge        0.052090000000021    0.000000000000000    0.372269999999958  0.0000
  Ge     Ge        0.157496864720340    0.310198119940662    0.280760421683114  0.0000
  Ge     Ge        0.842859082289172    0.295678364700297    0.697048621741758  0.0000
  Ge     Ge        0.169471228327758    0.701071149567788    0.961705110095399  0.0000
  Si     Si        0.456479714209643    0.979974949431785    0.355923817824711  0.0000
  Si     Si        0.949055282912475    0.989514296394299    0.626507190634876  0.0000
  Si     Si        0.545439569075561    0.984550387574277    0.626275721275867  0.0000
  Si     Si        0.561523857260059    0.982842514961806    0.109935474980988  0.0000
  Si     Si        0.945988062255122    0.979422089056971    0.116210877606094  0.0000
  Si     Si        0.442788348615433    0.970201191333590    0.875894588888602  0.0000
  Si     Si        0.055148317574501    0.987945380372179    0.878468986921418  0.0000
  Si     Si        0.352854436969788    0.671736404338788    0.263725779703779  0.0000
  Si     Si        0.653260527750941    0.681252684341121    0.715549683441207  0.0000
  Si     Si        0.833156931531109    0.704597891190788    0.710155450712599  0.0000
  Si     Si        0.660636091441498    0.277134146643029    0.706782611496251  0.0000
  Si     Si        0.175007229531711    0.722628608882137    0.266619406896190  0.0000
  Si     Si        0.339537058579178    0.272758260817337    0.275857192886528  0.0000
  Si     Si        0.669691231418297    0.271488531829124    0.011229544423259  0.0000
  Si     Si        0.836855368270180    0.689728113528385    0.013512040000429  0.0000
  Si     Si        0.331967358993706    0.260636494741866    0.971427966813197  0.0000
  Si     Si        0.350385189315258    0.653938628171536    0.958946556272364  0.0000
  Si     Si        0.151800389739525    0.294917468469754    0.976561847549850  0.0000
  Si     Si        0.657207001443376    0.669583806475155    0.017247690538319  0.0000
  Si     Si        0.848984140092707    0.289674383633536    0.006935023736658  0.0000
  O1     O1        0.090999871041723    0.205465798985357    0.373625005846196  0.0000
  O2     O2        0.413493595915636    0.794820082478928    0.338409232763520  0.0000
  O3     O3        0.906470441730120    0.174960197516842    0.603955038398997  0.0000
  O2     O2        0.595645446213332    0.805970585214363    0.635273506659799  0.0000
  O2     O2        0.879985616544387    0.847099643475516    0.629931973389680  0.0000
  O2     O2        0.601728856150407    0.151902736864739    0.629925073232348  0.0000
  O3     O3        0.130785733795089    0.861070481868074    0.354608876684609  0.0000
  O2     O2        0.394326129491758    0.138352641383417    0.353342323131921  0.0000
  O3     O3        0.010773901822686    0.947901927042681    0.518282030983589  0.0000
  O2     O2        0.499150919450389    0.982334050623024    0.492775596103336  0.0000
  O3     O3        0.978749629780331    0.972954386852252    0.259744059232330  0.0000
  O2     O2        0.520569866900242    0.005762761559105    0.246479970712127  0.0000
  O2     O2        0.992664704819546    0.991795960514530    0.764769418168586  0.0000
  O2     O2        0.483238712749652    0.999031342133769    0.740021968726088  0.0000
  O2     O2        0.625691663628971    0.133552181661307    0.099148533552781  0.0000
  O2     O2        0.883231672183787    0.824670541937630    0.103001214002695  0.0000
  O2     O2        0.371372091918316    0.107604522909716    0.887393116580083  0.0000
  O3     O3        0.118618856714577    0.836365680285375    0.858103816221267  0.0000
  O2     O2        0.411406989404388    0.771363307723969    0.880926918589661  0.0000
  O2     O2        0.097125041504274    0.176253824046019    0.884716242392197  0.0000
  O2     O2        0.602282497871821    0.791424177602756    0.105061101295595  0.0000
  O2     O2        0.906568497920392    0.169597658024950    0.092289013339100  0.0000
  O2     O2        0.500978997650041    0.009731757729623    0.993565062658401  0.0000
  O2     O2        0.014754354070864    0.943131086699481    0.014989630898417  0.0000
  O3     O3        0.138686165001539    0.531451814855973    0.284013636593593  0.0000
  O2     O2        0.372936093954899    0.469335274348960    0.294318727020308  0.0000
  O3     O3        0.862905077640164    0.513242025070472    0.672006594175510  0.0000
  O2     O2        0.634238217765635    0.478976774137324    0.685266564224942  0.0000
  O3     O3        0.252544978324528    0.265778602133494    0.328151249976829  0.0000
  O2     O2        0.265688729619733    0.713893096187482    0.310632302634662  0.0000
  O3     O3        0.747350638732385    0.252407316100227    0.655813805683805  0.0000
  O2     O2        0.741625033803749    0.721966319490641    0.675717296165980  0.0000
  O3     O3        0.142876943061135    0.233597257132758    0.123802802813549  0.0000
  O2     O2        0.356819706241006    0.707136720890403    0.110321468002456  0.0000
  O3     O3        0.858971954478411    0.241993638065532    0.857541609270850  0.0000
  O2     O2        0.641925385569370    0.721355097647570    0.867822868003596  0.0000
  O2     O2        0.845691496962728    0.739741058230019    0.863274654528530  0.0000
  O2     O2        0.659368807134078    0.228616212614824    0.859102414120100  0.0000
  O3     O3        0.168706893148960    0.782106298278486    0.117885589132647  0.0000
  O2     O2        0.339015638899320    0.219583892050808    0.123983908666592  0.0000
  O2     O2        0.636676918473952    0.466648034994482    0.041139811605737  0.0000
  O2     O2        0.870196649686313    0.493083048468638    0.034238542058929  0.0000
  O2     O2        0.371485371418478    0.447820116017947    0.940299955555461  0.0000
  O3     O3        0.128036757166629    0.495694075055756    0.959544223980123  0.0000
  O2     O2        0.760268906815166    0.258016000906380    0.049119436610690  0.0000
  O2     O2        0.746990674217577    0.701188228776644    0.054251629604545  0.0000
  O2     O2        0.241424191364694    0.270383773181689    0.932526903815808  0.0000
  O3     O3        0.264002499389570    0.689343860294270    0.907945846319512  0.0000
