data_c00528.vasp
_audit_creation_method             Generated by GULP
_audit_author_name                 Salvador R. G. Balestra
_symmetry_space_group_name_H-M     'P 1             '
_symmetry_Int_Tables_number        1

loop_
_symmetry_equiv_pos_site_id
_symmetry_equiv_pos_as_xyz
_cell_length_a                       17.1894
_cell_length_b                        7.5967
_cell_length_c                       10.2999
_cell_angle_alpha                   91.3346
_cell_angle_beta                    91.0954
_cell_angle_gamma                   90.1931

loop_
_atom_site_label
_atom_site_type_symbol
_atom_site_fract_x
_atom_site_fract_y
_atom_site_fract_z
_atom_site_charge
  Ge     Ge        0.052090000000021    0.000000000000000    0.372269999999958  0.0000
  Ge     Ge        0.157893709676792    0.314284677899314    0.289910152212401  0.0000
  Ge     Ge        0.653738739313946    0.659034903963025    0.718289583830150  0.0000
  Ge     Ge        0.855690134362486    0.317750494787459    0.039175544023077  0.0000
  Si     Si        0.458279232891957    0.993713949986207    0.373696940637769  0.0000
  Si     Si        0.951675295794114    0.979277921737081    0.630391903000209  0.0000
  Si     Si        0.549152432899966    0.966000399636505    0.639167383187604  0.0000
  Si     Si        0.561743137117801    0.991826678623102    0.125093464776173  0.0000
  Si     Si        0.951603228261215    0.999460464170600    0.110626673470189  0.0000
  Si     Si        0.444990138889890    0.982600017998428    0.887240428412463  0.0000
  Si     Si        0.061706281098081    0.990233383833517    0.872895487714374  0.0000
  Si     Si        0.355545953765745    0.682760376236159    0.283837169803236  0.0000
  Si     Si        0.849343744842886    0.285539846559841    0.729754731409090  0.0000
  Si     Si        0.834494933606283    0.689272955555302    0.718577952132045  0.0000
  Si     Si        0.671216265578813    0.248955318703661    0.734973920501118  0.0000
  Si     Si        0.175711440538157    0.725844371741969    0.285629100089817  0.0000
  Si     Si        0.340870190750715    0.279684701049406    0.286901161410023  0.0000
  Si     Si        0.674162511241485    0.279413375720762    0.039947635192175  0.0000
  Si     Si        0.833135405940548    0.718389188688139    0.024837847906804  0.0000
  Si     Si        0.335231936139742    0.272866414178108    0.982094101373993  0.0000
  Si     Si        0.171437004052758    0.707294420716745    0.983653541263027  0.0000
  Si     Si        0.351087974342322    0.671408999544488    0.981914762425285  0.0000
  Si     Si        0.155781287597067    0.303277158478146    0.982608400313066  0.0000
  Si     Si        0.655145023125155    0.676594435052176    0.027277300887469  0.0000
  O1     O1        0.090456776819314    0.207365571391060    0.378666499058825  0.0000
  O2     O2        0.414436737639395    0.805261271239055    0.368137015221458  0.0000
  O2     O2        0.906956835505571    0.164419642827355    0.645480670859242  0.0000
  O3     O3        0.583632704463651    0.771236481669538    0.631927064881295  0.0000
  O2     O2        0.892395032293343    0.817741002035149    0.646608670506031  0.0000
  O2     O2        0.623666454030164    0.092941418744969    0.663263761070596  0.0000
  O3     O3        0.133918885768260    0.866851608468018    0.375085459368860  0.0000
  O2     O2        0.395246417807227    0.149006633140190    0.366774270711963  0.0000
  O3     O3        0.985229661082052    0.962660399921056    0.488523284685824  0.0000
  O2     O2        0.505459721562944    0.015275879824647    0.507354282561129  0.0000
  O3     O3        0.004284323887973    0.943151080214007    0.228598315215250  0.0000
  O2     O2        0.519007865023261    0.009523932486953    0.259745373121951  0.0000
  O2     O2        0.025475411747844    0.970177338505338    0.729081510066458  0.0000
  O2     O2        0.487303795510513    0.993803083511500    0.752179321825726  0.0000
  O2     O2        0.627312979927908    0.143009849442380    0.125129762991157  0.0000
  O2     O2        0.872379425757946    0.883859493219501    0.099344145957565  0.0000
  O2     O2        0.377886485344789    0.129951303917235    0.892514641416528  0.0000
  O2     O2        0.126532312117529    0.839141101056738    0.889660898907703  0.0000
  O2     O2        0.407140218684056    0.788416765144300    0.895936908118274  0.0000
  O2     O2        0.099776131933965    0.184706051332114    0.888739630530385  0.0000
  O2     O2        0.599671138470618    0.798534258782257    0.114852563861150  0.0000
  O3     O3        0.923761230662208    0.200679608304277    0.126625001555631  0.0000
  O2     O2        0.503651785919566    0.025451894314596    0.005512188704831  0.0000
  O2     O2        0.995093253767042    0.962975728571603    0.976024258784827  0.0000
  O3     O3        0.140851322472916    0.534855102361987    0.310555215787893  0.0000
  O2     O2        0.372285126973176    0.478916841637758    0.311944819200318  0.0000
  O2     O2        0.866400403970944    0.490076767091373    0.701150728526357  0.0000
  O3     O3        0.635242091853486    0.436211401811805    0.702032207814014  0.0000
  O3     O3        0.253012748380554    0.264404812359610    0.332548476093217  0.0000
  O2     O2        0.267425898360475    0.726671953838074    0.321403088405134  0.0000
  O2     O2        0.760278811596248    0.240746810647201    0.687750250542122  0.0000
  O3     O3        0.746835208159309    0.700237748625105    0.664562867382387  0.0000
  O3     O3        0.141565386438872    0.248651544999342    0.129003817563039  0.0000
  O2     O2        0.367671332322310    0.722660316322671    0.132489855014167  0.0000
  O3     O3        0.864190612921147    0.247359203666829    0.879594296493478  0.0000
  O3     O3        0.642662685466031    0.725427224279378    0.878445343028344  0.0000
  O2     O2        0.831626296569989    0.742577973487395    0.870188070488872  0.0000
  O2     O2        0.672729189963037    0.218248087035243    0.889175215153589  0.0000
  O2     O2        0.163838168865934    0.771103612162715    0.133074838309822  0.0000
  O2     O2        0.344211728188745    0.229270150734448    0.133791948140792  0.0000
  O2     O2        0.634518166740428    0.472497601674339    0.051225055474605  0.0000
  O3     O3        0.877141134785301    0.539039930157519    0.057865543440648  0.0000
  O2     O2        0.370246826341804    0.466281712414310    0.955227753505612  0.0000
  O2     O2        0.136331878579590    0.509978619715839    0.965427214397329  0.0000
  O3     O3        0.762106498065244    0.286020330257941    0.091294312385860  0.0000
  O2     O2        0.744600613653449    0.708655667017390    0.071580989920189  0.0000
  O2     O2        0.244513057770548    0.268130327916919    0.943077781990935  0.0000
  O2     O2        0.261528913802370    0.708748733846349    0.944457329261566  0.0000
