data_c00548.vasp
_audit_creation_method             Generated by GULP
_audit_author_name                 Salvador R. G. Balestra
_symmetry_space_group_name_H-M     'P 1             '
_symmetry_Int_Tables_number        1

loop_
_symmetry_equiv_pos_site_id
_symmetry_equiv_pos_as_xyz
_cell_length_a                       17.1837
_cell_length_b                        7.6062
_cell_length_c                       10.2527
_cell_angle_alpha                   90.4490
_cell_angle_beta                    91.1140
_cell_angle_gamma                   90.1839

loop_
_atom_site_label
_atom_site_type_symbol
_atom_site_fract_x
_atom_site_fract_y
_atom_site_fract_z
_atom_site_charge
  Ge     Ge        0.052090000000021    0.000000000000000    0.372269999999958  0.0000
  Ge     Ge        0.177761173185619    0.271850815848383    0.277230332775263  0.0000
  Ge     Ge        0.157750941629151    0.691592557251294    0.285341350253403  0.0000
  Ge     Ge        0.659475213436000    0.351100020787267    0.038628842918979  0.0000
  Si     Si        0.460596593885796    0.022024057109244    0.369631035028942  0.0000
  Si     Si        0.949495569704642    0.013703706139014    0.624620792872558  0.0000
  Si     Si        0.553407166331889    0.021290680416454    0.638151956063629  0.0000
  Si     Si        0.563755960294688    0.035896048185284    0.127920492810510  0.0000
  Si     Si        0.956954472266960    0.034513956878820    0.102437425890941  0.0000
  Si     Si        0.448206904358564    0.025463812113871    0.886682723546786  0.0000
  Si     Si        0.064211817612232    0.012271720051734    0.861507555025846  0.0000
  Si     Si        0.341202462652424    0.733741034491571    0.282662562036218  0.0000
  Si     Si        0.836598463402164    0.308340487270603    0.728980691832311  0.0000
  Si     Si        0.668824191191304    0.733329208540619    0.721572032302814  0.0000
  Si     Si        0.847727001069225    0.710633238856546    0.719684297966093  0.0000
  Si     Si        0.659057793765320    0.327228177246826    0.727374394128814  0.0000
  Si     Si        0.359076617034364    0.330898668897076    0.275905733782497  0.0000
  Si     Si        0.855518287671860    0.721057907236311    0.023821518360850  0.0000
  Si     Si        0.352726942957309    0.340425804169670    0.969601879142236  0.0000
  Si     Si        0.157610036593884    0.703783385488554    0.977876803817711  0.0000
  Si     Si        0.336531097069038    0.736854924745924    0.976178768074240  0.0000
  Si     Si        0.174394012050113    0.297336664960663    0.968790431394888  0.0000
  Si     Si        0.675623112697477    0.755983070500883    0.025924455690095  0.0000
  Si     Si        0.840832648946497    0.324786113880138    0.036182305852151  0.0000
  O1     O1        0.133775582630261    0.130753641224526    0.379384717559927  0.0000
  O2     O2        0.394012321188142    0.873125928337515    0.362137587658303  0.0000
  O2     O2        0.891214178086444    0.171859445420250    0.656339514424908  0.0000
  O2     O2        0.614964032690044    0.861209261565884    0.635698179850605  0.0000
  O2     O2        0.904390956350333    0.827758298683107    0.633248198600216  0.0000
  O2     O2        0.599447809801083    0.206126411419923    0.643847631073126  0.0000
  O1     O1        0.089348390655377    0.793374107283993    0.377904844773830  0.0000
  O2     O2        0.424452217973770    0.215157935128393    0.348654144347431  0.0000
  O3     O3        0.979045172354378    0.037671567577528    0.479948670177051  0.0000
  O2     O2        0.500940717744967    0.014039474793871    0.509621377220018  0.0000
  O3     O3        0.017023445949524    0.055391412019783    0.218247724364960  0.0000
  O2     O2        0.525984560530689    0.984575363789838    0.263411797387604  0.0000
  O2     O2        0.026688629309874    0.014133156794273    0.716847903711485  0.0000
  O2     O2        0.495932110878460    0.998802825863735    0.757414465085071  0.0000
  O3     O3        0.593571936631221    0.234972828601842    0.128240445682753  0.0000
  O2     O2        0.913105456438866    0.845464821686147    0.108096786998681  0.0000
  O2     O2        0.410914041485516    0.220560206996807    0.886583950607489  0.0000
  O2     O2        0.101133467756460    0.819475230213161    0.885157621783371  0.0000
  O2     O2        0.379924462622381    0.880245484685819    0.890425774785958  0.0000
  O2     O2        0.128537462906104    0.167429590114704    0.868813316533144  0.0000
  O2     O2        0.639397346947792    0.914468981940225    0.107441938011017  0.0000
  O2     O2        0.893700572047258    0.189190324766928    0.115307964145783  0.0000
  O2     O2        0.502719710188386    0.995666073207467    0.011940422507951  0.0000
  O2     O2        0.997902460728012    0.055285503389496    0.964069849352636  0.0000
  O1     O1        0.138830420837525    0.475404119655900    0.299916956948281  0.0000
  O2     O2        0.374415909936740    0.537255603913793    0.305312186102863  0.0000
  O2     O2        0.865855227039728    0.505063495198297    0.695809873459418  0.0000
  O2     O2        0.640420211266962    0.532421325886612    0.702181662113617  0.0000
  O3     O3        0.275093514042116    0.277545999081875    0.323439477314180  0.0000
  O3     O3        0.253369421831064    0.743035107822344    0.329852474914709  0.0000
  O2     O2        0.746943626045510    0.284910026218748    0.681888561112550  0.0000
  O2     O2        0.758459280999755    0.750999663729175    0.678886209069304  0.0000
  O3     O3        0.169527819225453    0.219512141992547    0.112454936210978  0.0000
  O2     O2        0.343393661280781    0.781491155134526    0.129504698404753  0.0000
  O2     O2        0.838741760916181    0.275403619345260    0.883040465867920  0.0000
  O2     O2        0.663428266460849    0.790990862781721    0.872067546180522  0.0000
  O2     O2        0.864288672940007    0.761395349202560    0.870581159144642  0.0000
  O3     O3        0.648572161184725    0.284234811100062    0.878153147239550  0.0000
  O3     O3        0.145245183234875    0.763089539429628    0.125305855829223  0.0000
  O2     O2        0.363665689742181    0.292394874276443    0.121154371532492  0.0000
  O3     O3        0.637656471198671    0.570585054919988    0.059141084951524  0.0000
  O2     O2        0.877556666283910    0.520115258777174    0.055167020100246  0.0000
  O2     O2        0.373311233049610    0.544991941594577    0.946758685432665  0.0000
  O2     O2        0.138664705762409    0.494925296602897    0.963904615222067  0.0000
  O3     O3        0.754535569953104    0.318574443531879    0.089442447467345  0.0000
  O2     O2        0.766909963564942    0.753982504385200    0.063547650739972  0.0000
  O2     O2        0.263942694328130    0.303837528126442    0.924731099114925  0.0000
  O2     O2        0.246008765991889    0.737903909894603    0.934281395070631  0.0000
