data_c00575.vasp
_audit_creation_method             Generated by GULP
_audit_author_name                 Salvador R. G. Balestra
_symmetry_space_group_name_H-M     'P 1             '
_symmetry_Int_Tables_number        1

loop_
_symmetry_equiv_pos_site_id
_symmetry_equiv_pos_as_xyz
_cell_length_a                       17.2029
_cell_length_b                        7.6566
_cell_length_c                       10.1833
_cell_angle_alpha                   89.6055
_cell_angle_beta                    91.1027
_cell_angle_gamma                   89.1365

loop_
_atom_site_label
_atom_site_type_symbol
_atom_site_fract_x
_atom_site_fract_y
_atom_site_fract_z
_atom_site_charge
  Ge     Ge        0.052090000000021    0.000000000000000    0.372269999999958  0.0000
  Ge     Ge        0.159198809088229    0.310349400169478    0.291501208735055  0.0000
  Ge     Ge        0.333625612983401    0.292788770540145    0.963302390303768  0.0000
  Ge     Ge        0.148928370636180    0.322314852035681    0.971134891373714  0.0000
  Si     Si        0.456138965822019    0.979664871243154    0.374409961842872  0.0000
  Si     Si        0.947555552153093    0.976030360580916    0.625516577209475  0.0000
  Si     Si        0.553168695061675    0.981449628648071    0.638325697941575  0.0000
  Si     Si        0.558082790923394    0.987790282582320    0.126549535789879  0.0000
  Si     Si        0.947061445070464    0.975447151545275    0.108854584686651  0.0000
  Si     Si        0.444285827633596    0.994592376295676    0.884412931877985  0.0000
  Si     Si        0.054985067477526    0.008203591522727    0.868810228876544  0.0000
  Si     Si        0.352534666025074    0.679750852507885    0.282396947975893  0.0000
  Si     Si        0.842604978278211    0.280307278050592    0.726412292752741  0.0000
  Si     Si        0.660355885507814    0.676718118533061    0.715930924155287  0.0000
  Si     Si        0.838969613400784    0.680762820029887    0.723533442713219  0.0000
  Si     Si        0.662903441683016    0.275781779144944    0.722001488186069  0.0000
  Si     Si        0.172947210742211    0.719169767968374    0.292172511861751  0.0000
  Si     Si        0.339479777867644    0.277399543102127    0.279432790980704  0.0000
  Si     Si        0.664201664045701    0.279625370283006    0.028594975941167  0.0000
  Si     Si        0.837301849206916    0.683129521510679    0.031633561064953  0.0000
  Si     Si        0.165501123764336    0.725000099791408    0.987283253790033  0.0000
  Si     Si        0.346962927883293    0.689044315329300    0.979243700918900  0.0000
  Si     Si        0.658452180246686    0.678221691300582    0.023476062073685  0.0000
  Si     Si        0.844021155298475    0.286085767081872    0.033380506321933  0.0000
  O1     O1        0.093883851242017    0.199153571623244    0.384122965703265  0.0000
  O2     O2        0.410713723901848    0.796730115474374    0.368518733891143  0.0000
  O2     O2        0.897689426869566    0.153595688902798    0.644882724515373  0.0000
  O2     O2        0.604796769945266    0.804038443200235    0.629243693932716  0.0000
  O2     O2        0.893979301516075    0.807760335493454    0.644360434082738  0.0000
  O2     O2        0.609672791502964    0.147841388291233    0.636864406242078  0.0000
  O3     O3        0.129331099667011    0.851874529198596    0.385347992089287  0.0000
  O2     O2        0.397801613181485    0.142765531829088    0.353066636405577  0.0000
  O3     O3        0.978291688520353    0.970755713586799    0.480194621633415  0.0000
  O2     O2        0.493423213657585    0.995682244921549    0.518105468430870  0.0000
  O3     O3        0.010892914933757    0.961086417078290    0.219780857810400  0.0000
  O2     O2        0.525679002600726    0.983230804837667    0.272011579537964  0.0000
  O2     O2        0.023133130257873    0.971388598159700    0.722008706980703  0.0000
  O2     O2        0.505346788272918    0.977214888278720    0.770701946247094  0.0000
  O2     O2        0.616886394039672    0.148608715556121    0.118102500825261  0.0000
  O2     O2        0.887212895759815    0.815367498854658    0.118140724182949  0.0000
  O3     O3        0.387818120318371    0.158914179448094    0.864725229485006  0.0000
  O2     O2        0.129557649331665    0.881456761211495    0.898329626050732  0.0000
  O2     O2        0.392067309088433    0.821882878882089    0.887318730766363  0.0000
  O3     O3        0.081489266630685    0.206220383413442    0.880048346915264  0.0000
  O2     O2        0.601631361591346    0.803977713260258    0.102194668890913  0.0000
  O2     O2        0.899189125158167    0.159170168877269    0.121009792234049  0.0000
  O2     O2        0.487902171957896    0.020822445429696    0.024009226639426  0.0000
  O2     O2        0.986960789661486    0.963324351701403    0.968044894078426  0.0000
  O3     O3        0.138229992130682    0.528902761521175    0.309774066165109  0.0000
  O2     O2        0.372747698870375    0.474118793594023    0.296758927122101  0.0000
  O2     O2        0.863244897308046    0.480576036148603    0.693120644801830  0.0000
  O2     O2        0.639182270644674    0.475849341522788    0.687443464430987  0.0000
  O3     O3        0.254752508889481    0.267309027026069    0.340669201146077  0.0000
  O2     O2        0.264803485273788    0.713733456760322    0.328991725068380  0.0000
  O2     O2        0.753055677955864    0.242999577634946    0.688331229888497  0.0000
  O2     O2        0.749420128647107    0.712276328942906    0.678570220516905  0.0000
  O1     O1        0.146034732255298    0.251221518884285    0.130651540892792  0.0000
  O2     O2        0.361461096403274    0.740030877545178    0.131420862902705  0.0000
  O2     O2        0.857311630404238    0.244099307110479    0.880651349593596  0.0000
  O2     O2        0.648318011812309    0.718397421134261    0.869008657696663  0.0000
  O2     O2        0.847729426359043    0.720174197071457    0.877602062531930  0.0000
  O2     O2        0.650269196585648    0.235336056222303    0.875622018143481  0.0000
  O2     O2        0.162109932849387    0.780328393543544    0.139806856753373  0.0000
  O3     O3        0.331295975820235    0.231108442488835    0.126689016668187  0.0000
  O2     O2        0.636240624191453    0.478318539610716    0.054944368510414  0.0000
  O2     O2        0.865944161636446    0.485550150840602    0.065483261566395  0.0000
  O3     O3        0.376021098788442    0.495580045782273    0.951833135295027  0.0000
  O3     O3        0.123082143132047    0.543248903101185    0.965000876234380  0.0000
  O2     O2        0.754597238770235    0.254912285048302    0.067439622257229  0.0000
  O2     O2        0.747328046689917    0.709818788817610    0.068213460157656  0.0000
  O1     O1        0.239493556539568    0.292847564856578    0.907933561009562  0.0000
  O2     O2        0.254841322547374    0.696090258970701    0.946314073394730  0.0000
