data_c00556.vasp
_audit_creation_method             Generated by GULP
_audit_author_name                 Salvador R. G. Balestra
_symmetry_space_group_name_H-M     'P 1             '
_symmetry_Int_Tables_number        1

loop_
_symmetry_equiv_pos_site_id
_symmetry_equiv_pos_as_xyz
_cell_length_a                       17.1337
_cell_length_b                        7.6259
_cell_length_c                       10.2022
_cell_angle_alpha                   91.9962
_cell_angle_beta                    89.1653
_cell_angle_gamma                   88.8001

loop_
_atom_site_label
_atom_site_type_symbol
_atom_site_fract_x
_atom_site_fract_y
_atom_site_fract_z
_atom_site_charge
  Ge     Ge        0.052090000000021    0.000000000000000    0.372269999999958  0.0000
  Ge     Ge        0.152476205328247    0.315783964519732    0.288330316330056  0.0000
  Ge     Ge        0.340265708522105    0.257111575955161    0.284122573696753  0.0000
  Ge     Ge        0.356635341654095    0.625542913678104    0.952280727725002  0.0000
  Si     Si        0.457612412142575    0.968700549021649    0.358934127653589  0.0000
  Si     Si        0.957717763280462    0.948589472581134    0.636285518647906  0.0000
  Si     Si        0.558340238272296    0.958423881675061    0.612195490089423  0.0000
  Si     Si        0.557625255755533    0.977015191780999    0.099481798577123  0.0000
  Si     Si        0.944912751234583    0.965172979360876    0.125291283312525  0.0000
  Si     Si        0.448582593660047    0.938378546518876    0.855922895568697  0.0000
  Si     Si        0.061252155899264    0.959134456464467    0.889568016662914  0.0000
  Si     Si        0.357215792408744    0.662904395373378    0.261509216133479  0.0000
  Si     Si        0.848996843950706    0.259098946724967    0.706268639401024  0.0000
  Si     Si        0.663509138465440    0.656062128729948    0.709873979868794  0.0000
  Si     Si        0.843684871923676    0.662076946697301    0.710459410610231  0.0000
  Si     Si        0.669423947519359    0.252121296616640    0.706814266347335  0.0000
  Si     Si        0.177730066102264    0.714489937280255    0.259456234524817  0.0000
  Si     Si        0.667794343780373    0.262370817716460    0.013343800830708  0.0000
  Si     Si        0.839539864717895    0.670921149155024    0.016688457221542  0.0000
  Si     Si        0.337118617220051    0.221167255313935    0.974236561481050  0.0000
  Si     Si        0.176008188079026    0.665426715700842    0.950605872138231  0.0000
  Si     Si        0.155972684417195    0.275156655929393    0.975999560245091  0.0000
  Si     Si        0.659174382165276    0.661401548548024    0.015822419551951  0.0000
  Si     Si        0.847542753875745    0.271747046192077    0.013297931487456  0.0000
  O1     O1        0.082871480665707    0.211387497055897    0.376865058873772  0.0000
  O2     O2        0.412048024719832    0.786596597849388    0.349420892082340  0.0000
  O2     O2        0.907553797723763    0.130202936500656    0.622472807085991  0.0000
  O2     O2        0.607416074915000    0.777768049944476    0.626516333927626  0.0000
  O2     O2        0.898201929491862    0.786737571875202    0.627568815713114  0.0000
  O2     O2        0.615667143583253    0.122753228337243    0.623448760021758  0.0000
  O3     O3        0.136306742954144    0.884141437626148    0.324236461473079  0.0000
  O3     O3        0.395382655905510    0.125694718087879    0.383326261976768  0.0000
  O3     O3        0.021762230010065    0.931582662026481    0.523527861040003  0.0000
  O2     O2        0.522003286703392    0.956804588635358    0.469663182565610  0.0000
  O3     O3        0.973297095341587    0.966456366265157    0.271919499514392  0.0000
  O2     O2        0.502165874126801    0.007902318296180    0.223795363078246  0.0000
  O2     O2        0.999918060587209    0.948503824594199    0.774970336126371  0.0000
  O2     O2        0.487564672282434    0.976715890460261    0.716543826878742  0.0000
  O2     O2        0.619359842405041    0.133207461893987    0.101160259968584  0.0000
  O2     O2        0.885329514505154    0.806752974395399    0.106935636065091  0.0000
  O2     O2        0.372539079031869    0.065246560138697    0.879243908291868  0.0000
  O2     O2        0.125045558226393    0.801863913146968    0.869153048766107  0.0000
  O3     O3        0.421908981278041    0.738815970613659    0.858133958896779  0.0000
  O2     O2        0.102979793221150    0.146606034259350    0.887729390854803  0.0000
  O2     O2        0.602841088009088    0.788994868592443    0.104268340365109  0.0000
  O2     O2        0.903173695260389    0.151302231366039    0.097618320038055  0.0000
  O2     O2        0.509230258289235    0.988304869449629    0.968049784229794  0.0000
  O2     O2        0.019198246277889    0.933267892468839    0.029150572863604  0.0000
  O3     O3        0.133723310227627    0.539828944902129    0.298307422174026  0.0000
  O3     O3        0.380060638927504    0.463181425802223    0.283741781078700  0.0000
  O2     O2        0.868609152778807    0.459951299921252    0.676927033424710  0.0000
  O2     O2        0.644865727288623    0.452652234435669    0.678528147157872  0.0000
  O1     O1        0.245500020107898    0.270232336350647    0.338651654476217  0.0000
  O2     O2        0.266950474936606    0.696708612591290    0.307630927533538  0.0000
  O2     O2        0.760125618393878    0.219391033232788    0.666390961773703  0.0000
  O2     O2        0.753406572940408    0.693330263392076    0.673312675551419  0.0000
  O3     O3        0.141476879390784    0.239834617964817    0.127155008901248  0.0000
  O3     O3        0.367014488475408    0.709116528767821    0.110162416490854  0.0000
  O2     O2        0.860387025679289    0.224047755214644    0.859658216781683  0.0000
  O2     O2        0.647088077023437    0.702236728179830    0.863287582737151  0.0000
  O2     O2        0.853727303160230    0.708911339988548    0.864268882994389  0.0000
  O2     O2        0.658305178414188    0.213754372139076    0.859834047145515  0.0000
  O2     O2        0.181567362442105    0.728825368292357    0.102252874872927  0.0000
  O3     O3        0.342342883581989    0.171154825683593    0.124726115664064  0.0000
  O2     O2        0.637037643845904    0.461624228917375    0.043019099124458  0.0000
  O2     O2        0.869143759048408    0.473627215133942    0.044743718948297  0.0000
  O3     O3        0.379200223018715    0.403717897599354    0.949154753042781  0.0000
  O2     O2        0.134476655252329    0.476190647454419    0.942174217033713  0.0000
  O2     O2        0.757842858248361    0.241807695665445    0.052847537534428  0.0000
  O2     O2        0.748390485931877    0.693778135665056    0.053411867213651  0.0000
  O2     O2        0.246538759109039    0.243670913838472    0.937857701300663  0.0000
  O3     O3        0.263150268485412    0.654146670239503    0.893616315177592  0.0000
