data_c00570.vasp
_audit_creation_method             Generated by GULP
_audit_author_name                 Salvador R. G. Balestra
_symmetry_space_group_name_H-M     'P 1             '
_symmetry_Int_Tables_number        1

loop_
_symmetry_equiv_pos_site_id
_symmetry_equiv_pos_as_xyz
_cell_length_a                       17.1791
_cell_length_b                        7.6188
_cell_length_c                       10.2352
_cell_angle_alpha                   89.7216
_cell_angle_beta                    91.3095
_cell_angle_gamma                   89.8635

loop_
_atom_site_label
_atom_site_type_symbol
_atom_site_fract_x
_atom_site_fract_y
_atom_site_fract_z
_atom_site_charge
  Ge     Ge        0.052090000000021    0.000000000000000    0.372269999999958  0.0000
  Ge     Ge        0.174750840862358    0.281717393623383    0.290486421810138  0.0000
  Ge     Ge        0.855216079190666    0.674977730226051    0.034377776200020  0.0000
  Ge     Ge        0.170543779883191    0.281291873188948    0.975701192104818  0.0000
  Si     Si        0.456047110791431    0.016352050265988    0.366892480195488  0.0000
  Si     Si        0.942912596841566    0.993151546396823    0.619715260205774  0.0000
  Si     Si        0.547201807430798    0.011145609229187    0.637752572283641  0.0000
  Si     Si        0.561497352266766    0.992877387991721    0.120421570734822  0.0000
  Si     Si        0.954375139188125    0.994200057056089    0.106021697985713  0.0000
  Si     Si        0.444162639926902    0.013329502547320    0.885456713286337  0.0000
  Si     Si        0.058305191253818    0.998185043088289    0.860243041079189  0.0000
  Si     Si        0.338734195782914    0.730961672420361    0.282204443457064  0.0000
  Si     Si        0.832024205473213    0.287998783051064    0.719600900991989  0.0000
  Si     Si        0.663443233902737    0.715555281817156    0.732410241342603  0.0000
  Si     Si        0.841511706507116    0.692021333010951    0.722329008782234  0.0000
  Si     Si        0.653720296434610    0.312436316978814    0.724283722266056  0.0000
  Si     Si        0.158017761373235    0.697306857023259    0.280068254401980  0.0000
  Si     Si        0.353177939547384    0.331153636912966    0.288714194069549  0.0000
  Si     Si        0.656905744387948    0.307350223712737    0.029023273668164  0.0000
  Si     Si        0.349509582352787    0.331392470903942    0.977929502527764  0.0000
  Si     Si        0.153319466985568    0.692213660927607    0.980054206998921  0.0000
  Si     Si        0.334368824681492    0.726167448807232    0.977646973877789  0.0000
  Si     Si        0.672612511834289    0.703648686654752    0.039138173920948  0.0000
  Si     Si        0.836084511754148    0.272404795144315    0.026436459170404  0.0000
  O1     O1        0.120642884439753    0.159546693709819    0.394527821386920  0.0000
  O2     O2        0.386188433625301    0.874830914880793    0.365070141423248  0.0000
  O2     O2        0.885025367468794    0.157788268483280    0.637650385854595  0.0000
  O2     O2        0.607180789729799    0.850339606488734    0.656635243754756  0.0000
  O2     O2        0.896396780281262    0.811400460911222    0.634004731484658  0.0000
  O2     O2        0.593663181485908    0.194685954107622    0.641369033703235  0.0000
  O3     O3        0.101133188979238    0.801837325860101    0.372127480231512  0.0000
  O2     O2        0.420896780992822    0.212386345118557    0.354794075554980  0.0000
  O3     O3        0.975807191687715    0.001005085370201    0.476448136289088  0.0000
  O2     O2        0.505129437490346    0.993945739708469    0.498934486227389  0.0000
  O3     O3        0.011014770600453    0.049837710226525    0.220750862431507  0.0000
  O2     O2        0.513251199742208    0.978957646409028    0.249949522080169  0.0000
  O2     O2        0.017536999647388    0.999115599903266    0.717858398952090  0.0000
  O2     O2        0.480338566257293    0.006831269781916    0.743927728033790  0.0000
  O2     O2        0.601628339456000    0.183799812576585    0.113079560879179  0.0000
  O3     O3        0.925102861209588    0.794465374054420    0.117894263647428  0.0000
  O2     O2        0.414259242836009    0.210026515272526    0.912785328684464  0.0000
  O2     O2        0.098608235296062    0.808400422088736    0.884441657194083  0.0000
  O2     O2        0.373493657453902    0.874120374052119    0.888814586731867  0.0000
  O3     O3        0.121987690764190    0.149375761544836    0.865491406535195  0.0000
  O2     O2        0.626246359385266    0.840733122828622    0.126232968098688  0.0000
  O2     O2        0.875894869520661    0.112842120967781    0.104743290534127  0.0000
  O2     O2        0.507419385395793    0.956281493836625    0.994265847048203  0.0000
  O2     O2        0.995159427818916    0.035790458643975    0.969383143012804  0.0000
  O3     O3        0.140584994905757    0.494343935694300    0.292231399615860  0.0000
  O2     O2        0.371948547819588    0.536484651642381    0.314684269568116  0.0000
  O2     O2        0.859593245787027    0.487418410120017    0.694085072968841  0.0000
  O2     O2        0.634382720472216    0.517799007580941    0.702811288699237  0.0000
  O3     O3        0.270737439021338    0.281194316812178    0.346006401086896  0.0000
  O2     O2        0.248102500627127    0.740522364776030    0.319052124093091  0.0000
  O2     O2        0.741097212429090    0.269697764138132    0.678102283733381  0.0000
  O2     O2        0.751678709216693    0.736004777450349    0.684150027165845  0.0000
  O1     O1        0.167199143358659    0.205304230605415    0.132610353765986  0.0000
  O2     O2        0.347062941519800    0.776285556871116    0.129271183464374  0.0000
  O2     O2        0.841132674610605    0.240644842368049    0.871518577295202  0.0000
  O2     O2        0.664795446128657    0.755848877904781    0.886365155965013  0.0000
  O3     O3        0.860177629630153    0.734761197522175    0.872048049266861  0.0000
  O2     O2        0.644231284516433    0.262460817270203    0.876313307950165  0.0000
  O2     O2        0.141922475375898    0.758495808811121    0.128981807507091  0.0000
  O2     O2        0.346242468524838    0.296747324678163    0.133371916298107  0.0000
  O2     O2        0.636318383857063    0.509351416637946    0.058504721211619  0.0000
  O3     O3        0.876697626480457    0.455925241039742    0.059460865596237  0.0000
  O2     O2        0.371623818397083    0.534936852175347    0.950222640856876  0.0000
  O3     O3        0.130830867994411    0.491041638136522    0.967830731380265  0.0000
  O2     O2        0.746671187234532    0.275226284999175    0.069320807340778  0.0000
  O3     O3        0.761552673809418    0.708857039505046    0.085530955199443  0.0000
  O3     O3        0.264957970010258    0.289381279911897    0.920610219797261  0.0000
  O2     O2        0.243032443927278    0.720247452075945    0.941285278967566  0.0000
