data_c00555.vasp
_audit_creation_method             Generated by GULP
_audit_author_name                 Salvador R. G. Balestra
_symmetry_space_group_name_H-M     'P 1             '
_symmetry_Int_Tables_number        1

loop_
_symmetry_equiv_pos_site_id
_symmetry_equiv_pos_as_xyz
_cell_length_a                       17.1949
_cell_length_b                        7.6335
_cell_length_c                       10.1979
_cell_angle_alpha                   91.7585
_cell_angle_beta                    91.5402
_cell_angle_gamma                   90.9790

loop_
_atom_site_label
_atom_site_type_symbol
_atom_site_fract_x
_atom_site_fract_y
_atom_site_fract_z
_atom_site_charge
  Ge     Ge        0.052090000000021    0.000000000000000    0.372269999999958  0.0000
  Ge     Ge        0.173093858303959    0.288983428660994    0.295980714321578  0.0000
  Ge     Ge        0.359609943914889    0.337404212049815    0.291719784554002  0.0000
  Ge     Ge        0.150963665232446    0.667226047353304    0.970138048573982  0.0000
  Si     Si        0.458361832660670    0.026671555696846    0.372094051488126  0.0000
  Si     Si        0.945544898060171    0.993097997512461    0.621824669480438  0.0000
  Si     Si        0.549301067399718    0.986097291092197    0.637027559892371  0.0000
  Si     Si        0.560696964051051    0.001029009531026    0.125817829897648  0.0000
  Si     Si        0.949597211701077    0.011580178754186    0.105893786254520  0.0000
  Si     Si        0.442795277699232    0.993450599710901    0.885986573288944  0.0000
  Si     Si        0.056172426691174    0.975997959838385    0.864278224282936  0.0000
  Si     Si        0.337532242400818    0.739170428023603    0.268961200187471  0.0000
  Si     Si        0.836250353019165    0.289323884322458    0.720721731583359  0.0000
  Si     Si        0.661888324561891    0.698304230386650    0.721346864429671  0.0000
  Si     Si        0.841290842573947    0.691639749251483    0.722971834478875  0.0000
  Si     Si        0.657437555530944    0.295086669115930    0.718221895255123  0.0000
  Si     Si        0.158202009272738    0.698825832828772    0.277825819782895  0.0000
  Si     Si        0.659335323784760    0.307934808156607    0.024983293929385  0.0000
  Si     Si        0.846516016447207    0.697230436138891    0.029917487073329  0.0000
  Si     Si        0.348860623697149    0.307315689756115    0.978562055690193  0.0000
  Si     Si        0.331495295304328    0.699246630258015    0.959298574655362  0.0000
  Si     Si        0.168475951889764    0.259470074779068    0.987142936254763  0.0000
  Si     Si        0.666827972891026    0.707391866972227    0.027515987695137  0.0000
  Si     Si        0.838362913001538    0.299368676473289    0.028219126296174  0.0000
  O1     O1        0.118192331757658    0.168110716052380    0.397995929299517  0.0000
  O2     O2        0.382122256288106    0.907164603708659    0.334181316606162  0.0000
  O2     O2        0.890327445278983    0.159825465535397    0.640100392516479  0.0000
  O2     O2        0.607399497671808    0.822416415499869    0.636744459044936  0.0000
  O2     O2        0.896884074258228    0.814029325212867    0.641150836366063  0.0000
  O2     O2        0.599540845999573    0.166658712869728    0.633687525210489  0.0000
  O3     O3        0.103714813226368    0.808905591756039    0.372283328617004  0.0000
  O3     O3        0.429602054693473    0.224181758386970    0.377563753538739  0.0000
  O3     O3        0.975812783438939    0.992658937749650    0.476555569461062  0.0000
  O2     O2        0.493104306231281    0.968827679878329    0.510663945316438  0.0000
  O3     O3        0.012244680256352    0.039334067895105    0.218741025104488  0.0000
  O2     O2        0.526191831595136    0.999514643856278    0.268825096566138  0.0000
  O2     O2        0.021557805876647    0.005371647153246    0.718377923819897  0.0000
  O2     O2        0.496418631366188    0.983387431849266    0.762399677284272  0.0000
  O2     O2        0.603822753272328    0.187356260267475    0.108359327327825  0.0000
  O2     O2        0.903349338598417    0.825428640473711    0.117083918750027  0.0000
  O2     O2        0.399742370794128    0.179208656281123    0.888052686821414  0.0000
  O3     O3        0.085382530703503    0.778758223909235    0.874322029500769  0.0000
  O2     O2        0.379964132111947    0.834635838349503    0.874670425445289  0.0000
  O2     O2        0.128850923222023    0.109769780200669    0.891555581742562  0.0000
  O2     O2        0.620902375201400    0.842825953346772    0.117047413413792  0.0000
  O2     O2        0.888042921967018    0.168828603668216    0.114300939597306  0.0000
  O2     O2        0.492654744400848    0.968883814021830    0.018381828049852  0.0000
  O2     O2        0.989247060668994    0.019099358847062    0.965710086295201  0.0000
  O3     O3        0.136832112806606    0.497270189828236    0.291733784332877  0.0000
  O3     O3        0.378909162059441    0.560906416305527    0.305750172328710  0.0000
  O2     O2        0.860378796446924    0.489046867341230    0.689968979905054  0.0000
  O2     O2        0.637389668643909    0.496118811822127    0.689727138542235  0.0000
  O1     O1        0.268712114620303    0.295091782367878    0.347030051149594  0.0000
  O2     O2        0.249259791663047    0.733952289243946    0.319529015080487  0.0000
  O2     O2        0.745875224527281    0.255815678299545    0.678969954827193  0.0000
  O2     O2        0.751629828817135    0.729277313563831    0.684839878885873  0.0000
  O3     O3        0.167072798910896    0.201765225247388    0.136406742835923  0.0000
  O2     O2        0.332216516567114    0.758411868342305    0.112339249592326  0.0000
  O2     O2        0.847083942697037    0.254793831620194    0.874423097504360  0.0000
  O2     O2        0.652228523111434    0.747094318339883    0.874786975925705  0.0000
  O2     O2        0.857428333932293    0.734281787091128    0.876795377154718  0.0000
  O2     O2        0.646325245061032    0.258297786543402    0.871386345438929  0.0000
  O3     O3        0.144250330296068    0.753675970030444    0.127862731519957  0.0000
  O3     O3        0.366466512198823    0.269373258643732    0.129070983960442  0.0000
  O2     O2        0.637803869814610    0.509863130457123    0.054417764239522  0.0000
  O2     O2        0.868560021293431    0.498021640516253    0.060539865193494  0.0000
  O2     O2        0.370524814131181    0.507957281632793    0.945390079221909  0.0000
  O3     O3        0.127944500451333    0.445716594902984    0.969043505525856  0.0000
  O2     O2        0.748738451475077    0.277579616235661    0.066739720661132  0.0000
  O2     O2        0.757621693451830    0.730722721035084    0.066179271727371  0.0000
  O2     O2        0.257733671046876    0.278073278097276    0.944751297936865  0.0000
  O3     O3        0.243021519757249    0.693857697636930    0.908800948369051  0.0000
