data_c00625.vasp
_audit_creation_method             Generated by GULP
_audit_author_name                 Salvador R. G. Balestra
_symmetry_space_group_name_H-M     'P 1             '
_symmetry_Int_Tables_number        1

loop_
_symmetry_equiv_pos_site_id
_symmetry_equiv_pos_as_xyz
_cell_length_a                       17.2714
_cell_length_b                        7.6398
_cell_length_c                       10.1325
_cell_angle_alpha                   88.2512
_cell_angle_beta                    90.5828
_cell_angle_gamma                   88.7025

loop_
_atom_site_label
_atom_site_type_symbol
_atom_site_fract_x
_atom_site_fract_y
_atom_site_fract_z
_atom_site_charge
  Ge     Ge        0.052090000000021    0.000000000000000    0.372269999999958  0.0000
  Ge     Ge        0.352630288676483    0.665830815266063    0.298276901428354  0.0000
  Ge     Ge        0.659492610537110    0.310960068520409    0.721917297337725  0.0000
  Ge     Ge        0.149947340932000    0.336315872932133    0.977400079345404  0.0000
  Si     Si        0.452673536623582    0.970254933284113    0.384784878036671  0.0000
  Si     Si        0.949528545125002    0.005269373905251    0.630919581163697  0.0000
  Si     Si        0.546873607023838    0.022989473825097    0.643502186325179  0.0000
  Si     Si        0.557410293166389    0.004055594937193    0.139673850282494  0.0000
  Si     Si        0.945137913333659    0.988416687918038    0.111646982462795  0.0000
  Si     Si        0.442858672727901    0.007571678714101    0.898361870952550  0.0000
  Si     Si        0.055461122467098    0.029060345947540    0.873332885521596  0.0000
  Si     Si        0.156987352429824    0.305326738173720    0.289349082315157  0.0000
  Si     Si        0.840848019733718    0.307139713136723    0.727229615782239  0.0000
  Si     Si        0.660632760088913    0.722218870117098    0.724407804355720  0.0000
  Si     Si        0.839093364881197    0.710435970612415    0.729818721927173  0.0000
  Si     Si        0.170955405469452    0.709634038976013    0.302017444455842  0.0000
  Si     Si        0.334119696164403    0.262839430463726    0.279873290801582  0.0000
  Si     Si        0.660696749635144    0.299240823853247    0.036010162814914  0.0000
  Si     Si        0.837642626931801    0.695719517241352    0.039139195747115  0.0000
  Si     Si        0.330228789870842    0.303106825478271    0.967273883464435  0.0000
  Si     Si        0.167599553457984    0.741447822845318    0.994984158316946  0.0000
  Si     Si        0.347030544466896    0.695686356754142    0.983818276990178  0.0000
  Si     Si        0.659589336296631    0.701672559463743    0.033032552592578  0.0000
  Si     Si        0.838942849171414    0.299227335402159    0.038685959372883  0.0000
  O3     O3        0.100345725236341    0.194636270528968    0.380261959906392  0.0000
  O3     O3        0.420624654682669    0.776073560800286    0.386852394539857  0.0000
  O2     O2        0.901958732303365    0.185472429002677    0.653185040959576  0.0000
  O2     O2        0.607851567903446    0.859834513645414    0.639815194520908  0.0000
  O2     O2        0.895142562035929    0.838826608592863    0.651855403264428  0.0000
  O3     O3        0.595975253615213    0.196546818990207    0.628523130739866  0.0000
  O3     O3        0.118617392137501    0.828318958008115    0.393542204496709  0.0000
  O2     O2        0.380231228362148    0.098015813553763    0.344703601135656  0.0000
  O3     O3        0.978189328678477    0.999815472362875    0.483165563376611  0.0000
  O2     O2        0.483327173681218    0.014457264105351    0.528939039249051  0.0000
  O3     O3        0.010313940042603    0.972855654264825    0.219924734562603  0.0000
  O2     O2        0.523928790699178    0.995344920032734    0.285856363392020  0.0000
  O2     O2        0.025866067777004    0.994760110067680    0.725102823470775  0.0000
  O2     O2        0.502487366316384    0.020613336267375    0.781101219800598  0.0000
  O2     O2        0.610972290152073    0.173329506405513    0.129887162839657  0.0000
  O2     O2        0.889469198076288    0.821619845984666    0.124638679203394  0.0000
  O2     O2        0.380748409847475    0.167679033111584    0.884090505054123  0.0000
  O2     O2        0.128031730687996    0.899588314300176    0.909578005667295  0.0000
  O2     O2        0.399179479800151    0.823304552075795    0.893852120838037  0.0000
  O3     O3        0.084233409088608    0.225905412915021    0.883715459066132  0.0000
  O2     O2        0.605839704819422    0.824910872447804    0.119305157567296  0.0000
  O2     O2        0.893260119842580    0.166081178828907    0.124834641588266  0.0000
  O2     O2        0.487220247779882    0.025129658929635    0.036496393776588  0.0000
  O2     O2        0.984062098050125    0.989884943156050    0.968400757975043  0.0000
  O2     O2        0.140998522703024    0.511247097437991    0.306979263116940  0.0000
  O3     O3        0.371721221139595    0.443464964355706    0.318702099851204  0.0000
  O2     O2        0.861870480497136    0.510075620535122    0.698521337801900  0.0000
  O3     O3        0.635778145546442    0.528801271388511    0.694462586238503  0.0000
  O2     O2        0.245922655307702    0.257482428345325    0.330571032334243  0.0000
  O3     O3        0.259618315505975    0.711317145090319    0.348972706145338  0.0000
  O3     O3        0.754631145910166    0.273445863835133    0.677673109280076  0.0000
  O2     O2        0.750247985409297    0.749422707607405    0.685170187378800  0.0000
  O3     O3        0.141774731674221    0.258087733325377    0.137872187393433  0.0000
  O3     O3        0.364207516186461    0.730820865008817    0.135363334275829  0.0000
  O2     O2        0.846208369101296    0.263626687338860    0.883737777585031  0.0000
  O2     O2        0.650347871875804    0.758443441228297    0.879662187622595  0.0000
  O2     O2        0.847080751140988    0.742938741528788    0.884903404154216  0.0000
  O3     O3        0.649254813720535    0.248155604242894    0.885767380775917  0.0000
  O2     O2        0.164787931346536    0.783925658101800    0.150237388708988  0.0000
  O2     O2        0.330878649483155    0.248650175590294    0.121939564159549  0.0000
  O2     O2        0.633652727990377    0.501233738020919    0.054213403523408  0.0000
  O2     O2        0.865345383396045    0.495218061616483    0.069556495432014  0.0000
  O2     O2        0.367564819526722    0.495040508348756    0.948976078663465  0.0000
  O3     O3        0.127744874938803    0.558732995086725    0.968399376211284  0.0000
  O2     O2        0.750284350090237    0.274520860982781    0.079915648327529  0.0000
  O2     O2        0.748278046671027    0.721443622181086    0.079406793815577  0.0000
  O3     O3        0.242464772721567    0.305211783041081    0.917511816758357  0.0000
  O2     O2        0.256630377234204    0.730801528510157    0.950804785294302  0.0000
