data_c00620.vasp
_audit_creation_method             Generated by GULP
_audit_author_name                 Salvador R. G. Balestra
_symmetry_space_group_name_H-M     'P 1             '
_symmetry_Int_Tables_number        1

loop_
_symmetry_equiv_pos_site_id
_symmetry_equiv_pos_as_xyz
_cell_length_a                       17.1928
_cell_length_b                        7.6305
_cell_length_c                       10.2248
_cell_angle_alpha                   89.4126
_cell_angle_beta                    89.5670
_cell_angle_gamma                   89.5017

loop_
_atom_site_label
_atom_site_type_symbol
_atom_site_fract_x
_atom_site_fract_y
_atom_site_fract_z
_atom_site_charge
  Ge     Ge        0.052090000000021    0.000000000000000    0.372269999999958  0.0000
  Ge     Ge        0.339368562428430    0.719796509437170    0.295612132937024  0.0000
  Ge     Ge        0.658832877202127    0.335610236137411    0.725011085964503  0.0000
  Ge     Ge        0.651556833082114    0.340360742827102    0.045452491485445  0.0000
  Si     Si        0.456206888065575    0.001117526577853    0.378444905502050  0.0000
  Si     Si        0.956481441583340    0.012111386643197    0.640201216064768  0.0000
  Si     Si        0.555478874856266    0.032224496866642    0.632734046536824  0.0000
  Si     Si        0.555559997774592    0.021818895889040    0.123613260772480  0.0000
  Si     Si        0.948175939680373    0.014438555973495    0.111917817267144  0.0000
  Si     Si        0.446754802936145    0.013783759598215    0.879373751081787  0.0000
  Si     Si        0.064291832973982    0.008113877932993    0.878034325294783  0.0000
  Si     Si        0.173185217653089    0.281786863907769    0.290470599756565  0.0000
  Si     Si        0.838015249103904    0.308071784398975    0.734312982432656  0.0000
  Si     Si        0.673359542039809    0.745820377136774    0.730541083830926  0.0000
  Si     Si        0.851854480601337    0.708564199093441    0.734003948534766  0.0000
  Si     Si        0.156953144890099    0.686878658157979    0.296464507379666  0.0000
  Si     Si        0.353925276670434    0.310009312072583    0.287642330297608  0.0000
  Si     Si        0.851082981504810    0.701349948405940    0.039562967681285  0.0000
  Si     Si        0.351333104755764    0.323425691521521    0.983710309643017  0.0000
  Si     Si        0.159277319547297    0.695918099771367    0.990781463643405  0.0000
  Si     Si        0.338987363420502    0.725095783922763    0.984439963870591  0.0000
  Si     Si        0.171007924559883    0.295194112654963    0.987217417958867  0.0000
  Si     Si        0.672061519292289    0.743031805752810    0.038725736498448  0.0000
  Si     Si        0.831455288234393    0.309097682724786    0.044568979236061  0.0000
  O3     O3        0.126804638020350    0.150306397048839    0.381432939447784  0.0000
  O3     O3        0.393410249614738    0.849995765577357    0.395090985765304  0.0000
  O2     O2        0.899395028096882    0.172291745374505    0.675405759870428  0.0000
  O2     O2        0.626675304769466    0.895911580758214    0.653274951182938  0.0000
  O2     O2        0.911956400575614    0.827706700853675    0.653584532437301  0.0000
  O3     O3        0.591504338585772    0.223274404075325    0.635028579438991  0.0000
  O3     O3        0.093309279337353    0.792907526613285    0.378170723041385  0.0000
  O2     O2        0.410405884176007    0.186424940748280    0.372221469545689  0.0000
  O3     O3        0.984305705421061    0.031776463785634    0.492753275728191  0.0000
  O2     O2        0.518029994531845    0.999433369460973    0.493054197968808  0.0000
  O3     O3        0.006377908660631    0.041563795851745    0.226977474666767  0.0000
  O2     O2        0.502775774500920    0.963819538361378    0.244710055080085  0.0000
  O2     O2        0.033426882269186    0.012849716872264    0.730206780984997  0.0000
  O2     O2        0.487425060140025    0.003822696147590    0.739240199099368  0.0000
  O3     O3        0.584017100206483    0.219810276183026    0.133681238828946  0.0000
  O2     O2        0.908396059954521    0.822596752547588    0.122163523551050  0.0000
  O2     O2        0.405729602008282    0.204611433811903    0.891885838573644  0.0000
  O2     O2        0.103234734354650    0.818404559991743    0.904676436009945  0.0000
  O2     O2        0.383577477474607    0.859131899031104    0.888629586180663  0.0000
  O2     O2        0.126526028542490    0.163000028200020    0.893757525013941  0.0000
  O2     O2        0.632854815201826    0.899594445646425    0.119490915279111  0.0000
  O2     O2        0.881211014678515    0.161994578315859    0.118203696588166  0.0000
  O2     O2        0.510035441734939    0.984823696163426    0.990680459794193  0.0000
  O2     O2        0.991773194147337    0.039707124633838    0.973589967012208  0.0000
  O2     O2        0.144468982204623    0.479952306803196    0.316246855531998  0.0000
  O3     O3        0.372012580637563    0.507923243798591    0.319135796153134  0.0000
  O2     O2        0.869889327927958    0.504437314859495    0.706288535923972  0.0000
  O3     O3        0.640809047279361    0.556575175745560    0.699230456442810  0.0000
  O2     O2        0.264537479639138    0.265932689269553    0.322312989518335  0.0000
  O3     O3        0.242944938144218    0.737738548323491    0.340079105449264  0.0000
  O3     O3        0.753217225509680    0.288484646336781    0.673902667124097  0.0000
  O2     O2        0.764320462425009    0.755048124374199    0.688910318530311  0.0000
  O2     O2        0.159538124450297    0.235594479217472    0.137795271873689  0.0000
  O3     O3        0.350035184600074    0.779825735541674    0.133238579109698  0.0000
  O2     O2        0.824919623153445    0.277480671126708    0.889229841582916  0.0000
  O2     O2        0.666840285073715    0.782679306972375    0.884445497284925  0.0000
  O2     O2        0.862246537577403    0.749139429480819    0.886925021676084  0.0000
  O1     O1        0.642978731866548    0.281730076387425    0.885438985562109  0.0000
  O2     O2        0.147225986078881    0.740815882966331    0.143174465879045  0.0000
  O2     O2        0.368548608917540    0.271317828527014    0.133849628578024  0.0000
  O3     O3        0.630777195272368    0.560049431834919    0.067971742186854  0.0000
  O2     O2        0.871737762444100    0.498090653697560    0.068253027644334  0.0000
  O2     O2        0.371594168927840    0.527623624350368    0.961025369085513  0.0000
  O2     O2        0.138530480742491    0.492887353051065    0.965272469322008  0.0000
  O3     O3        0.745157652028896    0.305583797059594    0.101264989206319  0.0000
  O2     O2        0.761975823550102    0.734901680674909    0.081832337641480  0.0000
  O2     O2        0.261851687904065    0.288414603742879    0.949527160618935  0.0000
  O2     O2        0.247944097143347    0.732044872363311    0.949019064957206  0.0000
