data_c00632.vasp
_audit_creation_method             Generated by GULP
_audit_author_name                 Salvador R. G. Balestra
_symmetry_space_group_name_H-M     'P 1             '
_symmetry_Int_Tables_number        1

loop_
_symmetry_equiv_pos_site_id
_symmetry_equiv_pos_as_xyz
_cell_length_a                       17.1503
_cell_length_b                        7.6121
_cell_length_c                       10.2164
_cell_angle_alpha                   89.6489
_cell_angle_beta                    89.9643
_cell_angle_gamma                   89.5545

loop_
_atom_site_label
_atom_site_type_symbol
_atom_site_fract_x
_atom_site_fract_y
_atom_site_fract_z
_atom_site_charge
  Ge     Ge        0.052090000000021    0.000000000000000    0.372269999999958  0.0000
  Ge     Ge        0.338339997812429    0.722027575870611    0.289129410252202  0.0000
  Ge     Ge        0.647594003444142    0.329372499854682    0.038325283289394  0.0000
  Ge     Ge        0.852739010489764    0.683031448861442    0.041722752730444  0.0000
  Si     Si        0.455788243659815    0.001981676593863    0.374441105059285  0.0000
  Si     Si        0.950768376856888    0.999150124267902    0.634866282401782  0.0000
  Si     Si        0.554807060310768    0.016852756436368    0.631318830956922  0.0000
  Si     Si        0.551631020955267    0.009777851199715    0.116597096761434  0.0000
  Si     Si        0.948329125273077    0.002088259572141    0.115915666119777  0.0000
  Si     Si        0.442494599218147    0.007238301122896    0.872028219829239  0.0000
  Si     Si        0.059320977023596    0.000865322788869    0.876384581690561  0.0000
  Si     Si        0.173102720703853    0.279251084182601    0.288632805892240  0.0000
  Si     Si        0.833375335789868    0.292263203408065    0.733791929569141  0.0000
  Si     Si        0.670677806732404    0.723945157984886    0.729274951581840  0.0000
  Si     Si        0.848539991548236    0.694572892645381    0.729246798676341  0.0000
  Si     Si        0.656384347503930    0.319622841007296    0.727019027126528  0.0000
  Si     Si        0.155323900142941    0.684877255403584    0.291759518958893  0.0000
  Si     Si        0.354073686579932    0.311421012479713    0.282918738430747  0.0000
  Si     Si        0.348759541374252    0.319052968828548    0.978944915089191  0.0000
  Si     Si        0.154814379048703    0.688431330345827    0.986417220932612  0.0000
  Si     Si        0.334889118231183    0.721448953407256    0.977851513190039  0.0000
  Si     Si        0.168289591758379    0.286902085523884    0.985020184479982  0.0000
  Si     Si        0.670171535003048    0.729621557166366    0.037235243980559  0.0000
  Si     Si        0.829029123847390    0.284918632240694    0.043541119437347  0.0000
  O3     O3        0.127947876253574    0.148521812437061    0.382145610547283  0.0000
  O3     O3        0.391108915744645    0.854053575216041    0.391072827535775  0.0000
  O2     O2        0.888847079035252    0.153703149445028    0.662951035571170  0.0000
  O2     O2        0.617139722491151    0.859762008095853    0.649493662397715  0.0000
  O2     O2        0.908573428391183    0.810795585599192    0.644814116021714  0.0000
  O2     O2        0.597227648365202    0.204221419708813    0.641323342258743  0.0000
  O3     O3        0.091959037775078    0.791147303313967    0.374033703340474  0.0000
  O2     O2        0.411988150299038    0.189950929735030    0.367222922973824  0.0000
  O3     O3        0.982790878759142    0.023996155203026    0.490612547025985  0.0000
  O2     O2        0.519414122712381    0.002807501641802    0.487554984100867  0.0000
  O3     O3        0.005614591164317    0.054429365683218    0.228678421942704  0.0000
  O2     O2        0.499766624084183    0.956353778382741    0.239601938307314  0.0000
  O2     O2        0.025908219790741    0.008470211370875    0.730032759339871  0.0000
  O2     O2        0.483364642424470    0.999184036839241    0.731976239476058  0.0000
  O3     O3        0.579509630518585    0.209316715286216    0.123685224284706  0.0000
  O3     O3        0.918765692710669    0.803292858227065    0.129949632959217  0.0000
  O2     O2        0.403265385069031    0.199912284436364    0.887292257174142  0.0000
  O2     O2        0.097276902058654    0.808426260465481    0.900044879568423  0.0000
  O2     O2        0.377538547730816    0.855191881881703    0.879344302629000  0.0000
  O2     O2        0.123584589428882    0.152746962950525    0.891888879484711  0.0000
  O2     O2        0.628993599761781    0.888231131354964    0.113653278660724  0.0000
  O2     O2        0.870681390219880    0.123258750516926    0.116607129933443  0.0000
  O2     O2        0.505309622530856    0.969879423283536    0.983998733763545  0.0000
  O2     O2        0.989165323177051    0.034609830405346    0.975834460604343  0.0000
  O2     O2        0.143151305369609    0.477543541688677    0.312320635986344  0.0000
  O3     O3        0.372322768591994    0.510624865827661    0.311934850664725  0.0000
  O2     O2        0.866592598837773    0.487689351270108    0.707661349801010  0.0000
  O2     O2        0.638611679802507    0.527182926022535    0.707071727273155  0.0000
  O2     O2        0.264901973821513    0.267436283610534    0.320320885535563  0.0000
  O3     O3        0.241702628419624    0.737631268701815    0.333763137886718  0.0000
  O2     O2        0.744954323745040    0.278432206095337    0.679844523101669  0.0000
  O2     O2        0.760244678056269    0.736630145181111    0.681106938415914  0.0000
  O2     O2        0.159088347807756    0.228575071381450    0.136288621984970  0.0000
  O3     O3        0.347090897584022    0.780356710919462    0.126107213947768  0.0000
  O2     O2        0.827681675718136    0.254496000470716    0.887447878877854  0.0000
  O2     O2        0.670801608722173    0.770544188315808    0.881871779414932  0.0000
  O3     O3        0.860990035312018    0.743434232864013    0.879292978621659  0.0000
  O3     O3        0.642394402155610    0.266684203655280    0.876537921870127  0.0000
  O2     O2        0.143274401224000    0.737179090368514    0.138486322928531  0.0000
  O2     O2        0.366740831717263    0.268378452582049    0.129233849537636  0.0000
  O3     O3        0.625176075025538    0.548072543024765    0.059644779046665  0.0000
  O3     O3        0.874271241354570    0.464758031528124    0.069670416630699  0.0000
  O2     O2        0.368249765469433    0.523896970803344    0.955835093703418  0.0000
  O2     O2        0.134278450266979    0.483985451508623    0.963340134156157  0.0000
  O3     O3        0.741345752069951    0.296171618460771    0.094594700599444  0.0000
  O3     O3        0.757365194633266    0.714848805979526    0.089696680765876  0.0000
  O2     O2        0.258904831751236    0.282362313063004    0.945165439719482  0.0000
  O2     O2        0.243264982251653    0.725039179913185    0.943763746310236  0.0000
