data_c00631.vasp
_audit_creation_method             Generated by GULP
_audit_author_name                 Salvador R. G. Balestra
_symmetry_space_group_name_H-M     'P 1             '
_symmetry_Int_Tables_number        1

loop_
_symmetry_equiv_pos_site_id
_symmetry_equiv_pos_as_xyz
_cell_length_a                       17.1758
_cell_length_b                        7.6188
_cell_length_c                       10.2094
_cell_angle_alpha                   90.4952
_cell_angle_beta                    90.1167
_cell_angle_gamma                   91.0852

loop_
_atom_site_label
_atom_site_type_symbol
_atom_site_fract_x
_atom_site_fract_y
_atom_site_fract_z
_atom_site_charge
  Ge     Ge        0.052090000000021    0.000000000000000    0.372269999999958  0.0000
  Ge     Ge        0.334777014213988    0.752340792247400    0.282078148093249  0.0000
  Ge     Ge        0.358104767075076    0.337894328033959    0.292080874131063  0.0000
  Ge     Ge        0.149006861360463    0.670516605815789    0.977766578349046  0.0000
  Si     Si        0.456931070265199    0.032541239883304    0.374908654398807  0.0000
  Si     Si        0.950380915149887    0.014608033993238    0.633656080740717  0.0000
  Si     Si        0.553534012034967    0.006155636590716    0.631872979421638  0.0000
  Si     Si        0.553200537412962    0.003407846287939    0.114737942142293  0.0000
  Si     Si        0.945905137277701    0.018255404572909    0.114620161099571  0.0000
  Si     Si        0.441234480093645    0.011010536665305    0.871731058774964  0.0000
  Si     Si        0.056356842259026    0.984800410921714    0.875286304487966  0.0000
  Si     Si        0.174652553007598    0.285380008334485    0.297117421171231  0.0000
  Si     Si        0.838998837188395    0.307200303945209    0.732310454398182  0.0000
  Si     Si        0.664228390895736    0.715323320670785    0.731159215584963  0.0000
  Si     Si        0.843014911208494    0.710684735991000    0.734283103187025  0.0000
  Si     Si        0.660243509661212    0.311091260076360    0.728356382529020  0.0000
  Si     Si        0.153282149631090    0.689295496834026    0.288723679086201  0.0000
  Si     Si        0.656111394511643    0.314582763106672    0.034603827308652  0.0000
  Si     Si        0.842968367640168    0.706109272867263    0.041319756339474  0.0000
  Si     Si        0.349215156408419    0.319662025253583    0.983588588945622  0.0000
  Si     Si        0.330371108730317    0.720488373584934    0.969870856905523  0.0000
  Si     Si        0.169668072237313    0.266396174489431    0.992497272401198  0.0000
  Si     Si        0.663871591983183    0.713974564019239    0.037312732693892  0.0000
  Si     Si        0.835251649389211    0.307647855556871    0.039019528496151  0.0000
  O3     O3        0.125885075648276    0.156492842779659    0.388787541335681  0.0000
  O3     O3        0.379807842156191    0.910849294805255    0.376814716744487  0.0000
  O2     O2        0.895411824125132    0.181561500910465    0.652921071142954  0.0000
  O2     O2        0.608871466163190    0.840266404472031    0.649772504330000  0.0000
  O2     O2        0.901156195506170    0.835038500421922    0.654644655044535  0.0000
  O2     O2        0.603695165198803    0.186120154674863    0.643470277577948  0.0000
  O3     O3        0.091336727141708    0.793809823229608    0.374699347288209  0.0000
  O3     O3        0.427529238789848    0.229615852694941    0.381595640347757  0.0000
  O3     O3        0.980817090318997    0.018567200340410    0.487839612141272  0.0000
  O2     O2        0.518677356287686    0.992437225393177    0.487121047925837  0.0000
  O3     O3        0.008498761593189    0.043861799249578    0.224721849169246  0.0000
  O2     O2        0.496803561022251    0.985798212581397    0.236506323136790  0.0000
  O2     O2        0.025608594753737    0.022486014925942    0.729236860190130  0.0000
  O2     O2        0.481386195703369    0.005220566201634    0.730792829305232  0.0000
  O2     O2        0.598756467967725    0.190908609965234    0.117951288274062  0.0000
  O2     O2        0.899268771315162    0.831803001563816    0.127396400705309  0.0000
  O2     O2        0.402030458946081    0.200966820382298    0.888575557844527  0.0000
  O3     O3        0.083031285068281    0.785210606794379    0.886021842695636  0.0000
  O2     O2        0.377849998710769    0.852797146450748    0.875731981698066  0.0000
  O2     O2        0.131395475206264    0.108876410150319    0.907550159270952  0.0000
  O2     O2        0.614461051868681    0.846607573524666    0.123750148504024  0.0000
  O2     O2        0.884114408245066    0.174729027822606    0.124526712201195  0.0000
  O2     O2        0.505357994159538    0.978758499818965    0.981838653295768  0.0000
  O2     O2        0.987071901509776    0.028868457187068    0.973910980099108  0.0000
  O2     O2        0.139933685693667    0.480601144323155    0.303504374253638  0.0000
  O1     O1        0.378138943343276    0.555419366537615    0.307377547926306  0.0000
  O2     O2        0.862812192166863    0.508754655703854    0.702163480695865  0.0000
  O2     O2        0.640764250438685    0.513293776294641    0.699599903430590  0.0000
  O3     O3        0.263801933699979    0.291603493172665    0.342315950696810  0.0000
  O3     O3        0.239607133514387    0.740945439071041    0.335385052720901  0.0000
  O2     O2        0.749368659385186    0.272669375775723    0.689649363637625  0.0000
  O2     O2        0.754292820409202    0.749883676300485    0.692581728778082  0.0000
  O2     O2        0.168931535112872    0.216701938344289    0.146160794074169  0.0000
  O3     O3        0.332692908743142    0.796842196004515    0.116558562506261  0.0000
  O2     O2        0.846591861151807    0.267712838864028    0.885737160709194  0.0000
  O2     O2        0.654120073633491    0.757603784028643    0.884463274979979  0.0000
  O2     O2        0.854750151457801    0.748507651312836    0.888340369493104  0.0000
  O2     O2        0.646067797076952    0.269574050208051    0.881018003413490  0.0000
  O3     O3        0.141881339740876    0.742473234081730    0.137549526733485  0.0000
  O3     O3        0.365983722923837    0.265281526500671    0.131141201908444  0.0000
  O2     O2        0.633948530480598    0.515508811620963    0.064083392911323  0.0000
  O2     O2        0.864818942936019    0.505785594997732    0.071389720969759  0.0000
  O2     O2        0.369236339037260    0.526950322910412    0.966692504407083  0.0000
  O3     O3        0.126767803849099    0.447940696170693    0.968000717697589  0.0000
  O2     O2        0.744887099357082    0.283277108265695    0.077133393161023  0.0000
  O2     O2        0.753613208063175    0.737475540730598    0.079841699056388  0.0000
  O2     O2        0.258878593082698    0.287552335241061    0.946438484174075  0.0000
  O3     O3        0.242414886165695    0.704425954378326    0.920215973230300  0.0000
