data_c00619.vasp
_audit_creation_method             Generated by GULP
_audit_author_name                 Salvador R. G. Balestra
_symmetry_space_group_name_H-M     'P 1             '
_symmetry_Int_Tables_number        1

loop_
_symmetry_equiv_pos_site_id
_symmetry_equiv_pos_as_xyz
_cell_length_a                       17.2283
_cell_length_b                        7.6342
_cell_length_c                       10.2800
_cell_angle_alpha                   90.1890
_cell_angle_beta                    90.9801
_cell_angle_gamma                   89.9852

loop_
_atom_site_label
_atom_site_type_symbol
_atom_site_fract_x
_atom_site_fract_y
_atom_site_fract_z
_atom_site_charge
  Ge     Ge        0.052090000000021    0.000000000000000    0.372269999999958  0.0000
  Ge     Ge        0.351331603188677    0.680564009159833    0.271016170231495  0.0000
  Ge     Ge        0.832941307420770    0.716674176168551    0.698051090422440  0.0000
  Ge     Ge        0.846391606385695    0.329441740387680    0.020634676825066  0.0000
  Si     Si        0.456583357583665    0.987370896650463    0.352353118190884  0.0000
  Si     Si        0.950941478648741    0.004020362336873    0.630577497410032  0.0000
  Si     Si        0.547431569680674    0.994693238255890    0.618050892316520  0.0000
  Si     Si        0.555202609170098    0.006216619813265    0.096648578540814  0.0000
  Si     Si        0.940812621623805    0.016197081070225    0.126858143078283  0.0000
  Si     Si        0.437472981609928    0.998551987538445    0.859126321770125  0.0000
  Si     Si        0.051595724228815    0.002543448379210    0.888840714655966  0.0000
  Si     Si        0.159257478460586    0.301840167784434    0.265700917406896  0.0000
  Si     Si        0.843399976808366    0.303733689304811    0.712470081976152  0.0000
  Si     Si        0.651654811473891    0.687382976866992    0.697601431676747  0.0000
  Si     Si        0.664582455831494    0.285695647319180    0.712166056559832  0.0000
  Si     Si        0.169374427328413    0.708827056669733    0.274617699153142  0.0000
  Si     Si        0.337950321297832    0.270024243922658    0.259889127117755  0.0000
  Si     Si        0.665053855107084    0.301864726670373    0.017411799651299  0.0000
  Si     Si        0.832264062988321    0.735613135953570    0.005545480557774  0.0000
  Si     Si        0.330800114793740    0.288757105129093    0.955128927113680  0.0000
  Si     Si        0.163999129889791    0.712817825299808    0.971036714058901  0.0000
  Si     Si        0.343817907365611    0.688354368438175    0.961237456894559  0.0000
  Si     Si        0.151664244148957    0.313187690124018    0.964075300077518  0.0000
  Si     Si        0.653733162181124    0.695402492160132    0.002411136832538  0.0000
  O3     O3        0.101230441908183    0.193643734840953    0.350772227324399  0.0000
  O3     O3        0.419256659134295    0.796566020566454    0.359971793874001  0.0000
  O2     O2        0.898790815970771    0.180087644439820    0.627544565836933  0.0000
  O2     O2        0.588126072343842    0.803814487387629    0.620374233560413  0.0000
  O3     O3        0.892808689748234    0.842572356314222    0.605044024442991  0.0000
  O2     O2        0.612357836919260    0.143772239312544    0.637675122934605  0.0000
  O3     O3        0.114812023926743    0.825641141955324    0.361994846162430  0.0000
  O2     O2        0.385473325674448    0.123881290164861    0.338295731118040  0.0000
  O3     O3        0.017867687818614    0.010215403342441    0.527636985262702  0.0000
  O2     O2        0.507264679171300    0.028131070150645    0.479854062639725  0.0000
  O3     O3        0.973115761552981    0.977776134843231    0.269389670853190  0.0000
  O2     O2        0.512332480752565    0.007261970757268    0.231264284702671  0.0000
  O2     O2        0.991556434004755    0.977769050092440    0.771666495010618  0.0000
  O2     O2        0.480803348130423    0.007294063391413    0.724032409642649  0.0000
  O2     O2        0.615387320032367    0.166635222029981    0.099965170193289  0.0000
  O2     O2        0.869435882287287    0.885290043646497    0.096451234381984  0.0000
  O2     O2        0.373750282349564    0.153408888327548    0.861337381099218  0.0000
  O2     O2        0.115807781330005    0.848877099546536    0.883398986927761  0.0000
  O2     O2        0.396074636273920    0.809757683465642    0.869869916515977  0.0000
  O2     O2        0.093186596801164    0.192826335787885    0.878760775995052  0.0000
  O2     O2        0.599162768972667    0.821589643520812    0.084123447936495  0.0000
  O3     O3        0.909930472768953    0.213916682955022    0.117991044768757  0.0000
  O2     O2        0.496762780955661    0.033853518903754    0.976891504211622  0.0000
  O2     O2        0.008786253223492    0.982719825694657    0.024761506136531  0.0000
  O2     O2        0.146120431816535    0.506435476748092    0.292539706016544  0.0000
  O3     O3        0.368558646084381    0.461223906758666    0.295821773446014  0.0000
  O3     O3        0.864907213656351    0.503518200712927    0.688274932511051  0.0000
  O2     O2        0.633108397577502    0.480621132133425    0.679607709603166  0.0000
  O2     O2        0.248178378857459    0.251433516083318    0.299699502034021  0.0000
  O3     O3        0.258430912723731    0.734168363814740    0.316026789281816  0.0000
  O2     O2        0.753626448977543    0.269746239699568    0.667644413145387  0.0000
  O3     O3        0.736924985834967    0.726793130446168    0.646693146014905  0.0000
  O2     O2        0.141866308525147    0.258286945829319    0.114007185573793  0.0000
  O3     O3        0.363222318229598    0.734537187503456    0.109450676067921  0.0000
  O3     O3        0.854643383396159    0.255377527495228    0.863028179050388  0.0000
  O2     O2        0.646217426535706    0.739072304546446    0.849671764188102  0.0000
  O3     O3        0.837674860259157    0.791128219166687    0.856483353377141  0.0000
  O2     O2        0.663207809934027    0.247355448996508    0.865701091135188  0.0000
  O2     O2        0.158034470263926    0.762477144144873    0.122996715148443  0.0000
  O2     O2        0.345221240073402    0.237205365400992    0.105221085882281  0.0000
  O2     O2        0.628184458589109    0.496269395077021    0.031360887143702  0.0000
  O3     O3        0.871991954653244    0.548044316084877    0.028044617766932  0.0000
  O2     O2        0.362812526494210    0.484768107403349    0.931610549943218  0.0000
  O2     O2        0.130389691105874    0.517434504742470    0.944377155852200  0.0000
  O3     O3        0.752269377635085    0.300864779754600    0.070801221209256  0.0000
  O2     O2        0.742665732799609    0.719141025260603    0.047087080333841  0.0000
  O2     O2        0.239527352475336    0.279792220298741    0.920164693369869  0.0000
  O2     O2        0.253204823527507    0.723243993834154    0.929694067013914  0.0000
