data_c00642.vasp
_audit_creation_method             Generated by GULP
_audit_author_name                 Salvador R. G. Balestra
_symmetry_space_group_name_H-M     'P 1             '
_symmetry_Int_Tables_number        1

loop_
_symmetry_equiv_pos_site_id
_symmetry_equiv_pos_as_xyz
_cell_length_a                       17.1879
_cell_length_b                        7.6337
_cell_length_c                       10.1955
_cell_angle_alpha                   88.9681
_cell_angle_beta                    90.1391
_cell_angle_gamma                   89.9861

loop_
_atom_site_label
_atom_site_type_symbol
_atom_site_fract_x
_atom_site_fract_y
_atom_site_fract_z
_atom_site_charge
  Ge     Ge        0.052090000000021    0.000000000000000    0.372269999999958  0.0000
  Ge     Ge        0.337510633518490    0.728423365887158    0.294029109154502  0.0000
  Ge     Ge        0.850033794850046    0.680645862965977    0.044056541216464  0.0000
  Ge     Ge        0.168484600579582    0.289489429300020    0.984651522797269  0.0000
  Si     Si        0.454897248704469    0.011746025109317    0.376539622920911  0.0000
  Si     Si        0.946290043681478    0.003981713954971    0.628775826057859  0.0000
  Si     Si        0.551781981569166    0.018462642604304    0.636343010760349  0.0000
  Si     Si        0.554521747066530    0.995078801166673    0.118733392169853  0.0000
  Si     Si        0.949356065311198    0.997503114694016    0.113834070127048  0.0000
  Si     Si        0.442509494463737    0.018427612739790    0.878666960499950  0.0000
  Si     Si        0.057622453922444    0.004212739993933    0.869810315638859  0.0000
  Si     Si        0.172717273836179    0.281760880626921    0.293869886027483  0.0000
  Si     Si        0.834310896781177    0.297373138851633    0.729364476702894  0.0000
  Si     Si        0.665028863713552    0.720834018437483    0.736168978753472  0.0000
  Si     Si        0.843107868291843    0.700471603658773    0.730179576192914  0.0000
  Si     Si        0.656061159644503    0.318803044707680    0.730017437384833  0.0000
  Si     Si        0.154858473532960    0.689293126446533    0.291623750680336  0.0000
  Si     Si        0.351889835283000    0.320883239642431    0.290304245319590  0.0000
  Si     Si        0.653324500514437    0.310143104456726    0.036324948610370  0.0000
  Si     Si        0.350427672063109    0.332158618198710    0.982063183249438  0.0000
  Si     Si        0.153123008873238    0.695913375357824    0.987869851627201  0.0000
  Si     Si        0.334086345893490    0.730856306186502    0.982336574676901  0.0000
  Si     Si        0.667661576514965    0.706258551744888    0.044571423038901  0.0000
  Si     Si        0.832350925199498    0.278689690611094    0.037783705080225  0.0000
  O3     O3        0.124622785368929    0.155787830751052    0.389486604031480  0.0000
  O3     O3        0.390330395295780    0.862828374198473    0.393419262154616  0.0000
  O2     O2        0.888782510688721    0.167746886663363    0.649756244485380  0.0000
  O2     O2        0.610025497197603    0.856114137090584    0.659159094214994  0.0000
  O2     O2        0.899620683860221    0.821920301166721    0.643082901504689  0.0000
  O2     O2        0.597967662050837    0.201125894297124    0.646316196595931  0.0000
  O3     O3        0.092965594403579    0.793079552693408    0.376827924820015  0.0000
  O2     O2        0.411170205883133    0.198270686946980    0.371209783402008  0.0000
  O3     O3        0.979001156913925    0.018236755103843    0.484124970062740  0.0000
  O2     O2        0.518130827292891    0.007854304810619    0.490954594629216  0.0000
  O3     O3        0.008337758620721    0.049126420156563    0.224281900112590  0.0000
  O2     O2        0.498448706875918    0.974464228731254    0.241081673037830  0.0000
  O2     O2        0.020763208060512    0.005856311492744    0.725253971643138  0.0000
  O2     O2        0.479434192010369    0.011148828029318    0.735283508855241  0.0000
  O2     O2        0.596321118840240    0.184642218342302    0.119348113659430  0.0000
  O3     O3        0.918266279289363    0.799717333419907    0.128469666037792  0.0000
  O2     O2        0.410429182696638    0.214283853577503    0.901096585463542  0.0000
  O2     O2        0.098548694314880    0.816744722704938    0.896763147761389  0.0000
  O2     O2        0.373868729639103    0.874250516675339    0.886302962577781  0.0000
  O3     O3        0.120988991855166    0.155750722081097    0.878034683995111  0.0000
  O2     O2        0.618084772286321    0.841077990343404    0.128655203094004  0.0000
  O2     O2        0.872361845475567    0.119700515097711    0.116462695971462  0.0000
  O2     O2        0.507139991237632    0.967465119066467    0.985588048152036  0.0000
  O2     O2        0.990109968063805    0.036771358089765    0.974366011028638  0.0000
  O2     O2        0.141551463821525    0.480921430455837    0.302100177269720  0.0000
  O3     O3        0.372402664122670    0.518776530658663    0.318347015335688  0.0000
  O2     O2        0.862195405374066    0.496837937076280    0.702798178063357  0.0000
  O2     O2        0.636596529955723    0.523641506314851    0.706264978394548  0.0000
  O2     O2        0.263526182127670    0.278024398442352    0.334535606974459  0.0000
  O3     O3        0.240955448373372    0.737511413197403    0.338326730103538  0.0000
  O2     O2        0.744323929590690    0.278042425161959    0.685614624396864  0.0000
  O2     O2        0.754024712249715    0.743126986812702    0.689075622832232  0.0000
  O3     O3        0.163315519163723    0.216285905294229    0.145231214835995  0.0000
  O3     O3        0.345115327011011    0.789546160557834    0.130768515024881  0.0000
  O2     O2        0.840081443443729    0.250528900566183    0.882452029599281  0.0000
  O2     O2        0.663555203204747    0.757959795923189    0.890621736039669  0.0000
  O3     O3        0.857968729517226    0.741182912044942    0.880976344068590  0.0000
  O2     O2        0.643905421184519    0.268377444639282    0.882739064570907  0.0000
  O2     O2        0.143252091288024    0.752137539376938    0.139495585284062  0.0000
  O2     O2        0.358004051078173    0.281511025906044    0.135635054661285  0.0000
  O2     O2        0.632016026407722    0.511118007574542    0.065308823417904  0.0000
  O3     O3        0.871213421157022    0.462342848376672    0.071864712157170  0.0000
  O2     O2        0.371184913633411    0.538037598064449    0.961180178497412  0.0000
  O3     O3        0.128622073631655    0.497053360418321    0.970568903800876  0.0000
  O2     O2        0.742138985534402    0.277086770686658    0.079395884812782  0.0000
  O3     O3        0.755487266256562    0.714129294140331    0.093673121325072  0.0000
  O3     O3        0.263990585994726    0.295607423936886    0.934058250730642  0.0000
  O2     O2        0.242885210915800    0.722394496320557    0.946731429684061  0.0000
