data_c00690.vasp
_audit_creation_method             Generated by GULP
_audit_author_name                 Salvador R. G. Balestra
_symmetry_space_group_name_H-M     'P 1             '
_symmetry_Int_Tables_number        1

loop_
_symmetry_equiv_pos_site_id
_symmetry_equiv_pos_as_xyz
_cell_length_a                       17.2168
_cell_length_b                        7.6253
_cell_length_c                       10.2397
_cell_angle_alpha                   89.5641
_cell_angle_beta                    91.2919
_cell_angle_gamma                   90.0008

loop_
_atom_site_label
_atom_site_type_symbol
_atom_site_fract_x
_atom_site_fract_y
_atom_site_fract_z
_atom_site_charge
  Ge     Ge        0.052090000000021    0.000000000000000    0.372269999999958  0.0000
  Ge     Ge        0.827955654167858    0.292378966242008    0.695863597129040  0.0000
  Ge     Ge        0.843492927000235    0.677606981525114    0.019973230266672  0.0000
  Ge     Ge        0.144775856334008    0.682633899401704    0.958845371355955  0.0000
  Si     Si        0.450880295673145    0.010894695674731    0.353723323836308  0.0000
  Si     Si        0.944945684310188    0.007564460948767    0.624574811724817  0.0000
  Si     Si        0.542924610896016    0.015986071930107    0.622190249787471  0.0000
  Si     Si        0.553101149952556    0.001926187647753    0.106829051255510  0.0000
  Si     Si        0.938091043074049    0.990440316102786    0.125909339222846  0.0000
  Si     Si        0.435696664011009    0.000771581085784    0.869420448599008  0.0000
  Si     Si        0.044152547123567    0.996549971248705    0.882013243255554  0.0000
  Si     Si        0.167968310642886    0.289040629053502    0.272163965031448  0.0000
  Si     Si        0.334867914447044    0.718743233762214    0.256309035340719  0.0000
  Si     Si        0.660063456685581    0.725907151104009    0.709994046888027  0.0000
  Si     Si        0.839999445810807    0.704930149161902    0.711340847815764  0.0000
  Si     Si        0.646729295258206    0.324330884110323    0.695884245927215  0.0000
  Si     Si        0.157146858653115    0.697957376861613    0.266528948593088  0.0000
  Si     Si        0.346600260121120    0.316356906884632    0.264870080249472  0.0000
  Si     Si        0.649876315403646    0.313221198126602    0.001938640683516  0.0000
  Si     Si        0.339281697233422    0.311335175762304    0.960937764159705  0.0000
  Si     Si        0.326438437990147    0.707354374753981    0.948775689565615  0.0000
  Si     Si        0.159270598603497    0.275908563528665    0.970552437962009  0.0000
  Si     Si        0.661318713480567    0.708250017965349    0.015927044918439  0.0000
  Si     Si        0.828271689303951    0.270764854574713    0.004926679032704  0.0000
  O3     O3        0.117852553731529    0.170713505159223    0.365878174393873  0.0000
  O2     O2        0.389788299854316    0.854090422518677    0.331895048190628  0.0000
  O3     O3        0.885309321008350    0.166344136072660    0.598293899770260  0.0000
  O2     O2        0.609786843506159    0.867955245555056    0.629414374303962  0.0000
  O2     O2        0.894569802468471    0.828513088120870    0.624425765798385  0.0000
  O2     O2        0.583046939630621    0.207642510339601    0.618250920528408  0.0000
  O3     O3        0.100342911633815    0.803751578959607    0.357002485864208  0.0000
  O2     O2        0.406392386932337    0.197230764749531    0.348447854451516  0.0000
  O3     O3        0.013493054635225    0.997818187001201    0.525119183775621  0.0000
  O2     O2        0.490332406213401    0.987548913741249    0.494633252596130  0.0000
  O3     O3        0.973969484034169    0.028159463010799    0.266860506957743  0.0000
  O2     O2        0.518598868550496    0.004172408028472    0.249704225950308  0.0000
  O2     O2        0.984712125445422    0.044873923671258    0.766247563673061  0.0000
  O2     O2        0.487949857069129    0.996324608274629    0.744491193815799  0.0000
  O2     O2        0.594551014431757    0.187454613790740    0.082874809838716  0.0000
  O3     O3        0.907000283916830    0.792065801677942    0.119053654034846  0.0000
  O2     O2        0.391075542880801    0.186474591935103    0.873093767840182  0.0000
  O3     O3        0.077183650668089    0.801311652214233    0.868302820223404  0.0000
  O2     O2        0.373969979637919    0.842673523685425    0.860874359395969  0.0000
  O2     O2        0.117500078127879    0.129381233470891    0.882503147913851  0.0000
  O2     O2        0.613836293096626    0.842651562411719    0.102492269391640  0.0000
  O2     O2        0.866089210530574    0.121361244270851    0.097101579428285  0.0000
  O2     O2        0.486075672663311    0.969185473766063    0.000096875080146  0.0000
  O2     O2        0.003549667433102    0.023110169053646    0.019666774289976  0.0000
  O2     O2        0.141460952694097    0.490694183925405    0.282168228723731  0.0000
  O2     O2        0.364948161036591    0.521463721247228    0.287123736741960  0.0000
  O3     O3        0.861367842117171    0.504923169599969    0.687327490145031  0.0000
  O2     O2        0.627912830399710    0.531269871272930    0.678273966986872  0.0000
  O2     O2        0.259325977687476    0.273528610688588    0.309046206493954  0.0000
  O2     O2        0.246980280470361    0.740635302536099    0.305036826957116  0.0000
  O3     O3        0.731774701614501    0.285876667011294    0.644135114196469  0.0000
  O2     O2        0.749726099781269    0.738934008493254    0.669046065029788  0.0000
  O2     O2        0.153947258262385    0.223862997194407    0.123562107851758  0.0000
  O2     O2        0.333818072173631    0.757115742369459    0.101616869596195  0.0000
  O3     O3        0.832600973973835    0.216376805143221    0.854993454790899  0.0000
  O2     O2        0.656568152559554    0.766416086885484    0.863956121798172  0.0000
  O3     O3        0.853489599601094    0.753293216727277    0.862085660335099  0.0000
  O2     O2        0.642486262621944    0.270845176533935    0.848529582283011  0.0000
  O3     O3        0.139143356942066    0.754249713410734    0.117833642654325  0.0000
  O2     O2        0.356332357088776    0.268171781445962    0.113090740052229  0.0000
  O2     O2        0.625035297017406    0.513155434664570    0.030011443403700  0.0000
  O3     O3        0.868406510095858    0.458362243321289    0.027168699649858  0.0000
  O2     O2        0.360748547395555    0.512096228649538    0.928152831967453  0.0000
  O3     O3        0.120679963859169    0.464088688623744    0.945714222356133  0.0000
  O2     O2        0.738864722772452    0.287061242573659    0.047615888059557  0.0000
  O3     O3        0.749228994081024    0.707893248298108    0.067210140299206  0.0000
  O2     O2        0.248630738805283    0.281744389494507    0.928243636060084  0.0000
  O3     O3        0.237430940247228    0.714319914066591    0.903524760716412  0.0000
