data_c00696.vasp
_audit_creation_method             Generated by GULP
_audit_author_name                 Salvador R. G. Balestra
_symmetry_space_group_name_H-M     'P 1             '
_symmetry_Int_Tables_number        1

loop_
_symmetry_equiv_pos_site_id
_symmetry_equiv_pos_as_xyz
_cell_length_a                       17.1013
_cell_length_b                        7.5994
_cell_length_c                       10.3258
_cell_angle_alpha                   90.1877
_cell_angle_beta                    90.0796
_cell_angle_gamma                   89.4507

loop_
_atom_site_label
_atom_site_type_symbol
_atom_site_fract_x
_atom_site_fract_y
_atom_site_fract_z
_atom_site_charge
  Ge     Ge        0.052090000000021    0.000000000000000    0.372269999999958  0.0000
  Ge     Ge        0.849413460616959    0.300741793837454    0.707873477457681  0.0000
  Ge     Ge        0.330716526790854    0.232552786332376    0.969888209712600  0.0000
  Ge     Ge        0.353988693650017    0.643508811854352    0.956969097668537  0.0000
  Si     Si        0.452661341565187    0.977544331658065    0.356300924373581  0.0000
  Si     Si        0.955862133065718    0.990699077855922    0.635882819023677  0.0000
  Si     Si        0.551644831642601    0.986860573792652    0.615127247449377  0.0000
  Si     Si        0.551345104495930    0.989354137858226    0.100443367912338  0.0000
  Si     Si        0.937777764584748    0.985547045057110    0.129542140700131  0.0000
  Si     Si        0.443218480724778    0.957847030547405    0.858287933990870  0.0000
  Si     Si        0.052800559384129    0.984790293124454    0.896686007825514  0.0000
  Si     Si        0.155801694112107    0.309830205413751    0.282041811696042  0.0000
  Si     Si        0.353725292631847    0.668265183094881    0.263280421876369  0.0000
  Si     Si        0.655774086983042    0.681961986289479    0.709219799515288  0.0000
  Si     Si        0.836608762460393    0.711809583661550    0.717951255556743  0.0000
  Si     Si        0.665913910763126    0.277307762945667    0.702193256472279  0.0000
  Si     Si        0.175551467147677    0.711540981864012    0.268666523781425  0.0000
  Si     Si        0.334791937224994    0.261095904653217    0.275973336087781  0.0000
  Si     Si        0.664407181709489    0.274563529673497    0.005961583991920  0.0000
  Si     Si        0.830112515970145    0.699834973121419    0.020034316996958  0.0000
  Si     Si        0.170556783866120    0.695836756153972    0.966287157529117  0.0000
  Si     Si        0.148445387136930    0.300575096352022    0.979977625748779  0.0000
  Si     Si        0.649535530371729    0.674455953710649    0.009776064487176  0.0000
  Si     Si        0.844618672418844    0.297435171732311    0.016068072371986  0.0000
  O3     O3        0.093651212736330    0.206457990678613    0.366152120702999  0.0000
  O2     O2        0.413601046157354    0.784964642022419    0.347721401566877  0.0000
  O3     O3        0.916919263664247    0.182321357088274    0.619787060598830  0.0000
  O2     O2        0.600135977859730    0.804605827448758    0.622962145318763  0.0000
  O2     O2        0.883295980362377    0.855068468176442    0.636171545468979  0.0000
  O2     O2        0.610424710452397    0.150752394746604    0.619467439502120  0.0000
  O3     O3        0.127067218488360    0.851988643633680    0.347953188843836  0.0000
  O2     O2        0.386546072607837    0.130818534960338    0.365242192369107  0.0000
  O3     O3        0.017298289817257    0.955421587769624    0.524602689687665  0.0000
  O2     O2        0.504966968276691    0.987970179590676    0.482897663478950  0.0000
  O3     O3        0.972642038284393    0.978649458957652    0.271638339020032  0.0000
  O2     O2        0.509266108057256    0.013165662689856    0.236168306313831  0.0000
  O2     O2        0.998880461863054    0.969199774030739    0.772815853434303  0.0000
  O2     O2        0.489969625848319    0.005767651972336    0.730655221829565  0.0000
  O2     O2        0.618103474284323    0.135929228248902    0.091249912058127  0.0000
  O2     O2        0.872555716394368    0.834782785174019    0.115239045631906  0.0000
  O3     O3        0.362818858966163    0.067233374852228    0.869499658087287  0.0000
  O2     O2        0.122400264478243    0.840822396857435    0.885295265483261  0.0000
  O3     O3        0.420869298614254    0.754899341775865    0.863129785544533  0.0000
  O2     O2        0.086206675748325    0.182541102368228    0.902812371790398  0.0000
  O2     O2        0.589854475456449    0.794208932274650    0.092037801443201  0.0000
  O2     O2        0.899570145054091    0.178375770250060    0.107320379707375  0.0000
  O2     O2        0.490280610581026    0.023978534471548    0.985449761925217  0.0000
  O2     O2        0.006032584566038    0.943127314376977    0.027336833568579  0.0000
  O2     O2        0.140600317873463    0.518308416012810    0.296065867515313  0.0000
  O2     O2        0.369435394807824    0.458883739883050    0.280298863986729  0.0000
  O3     O3        0.869445781070243    0.519927312860560    0.686264829644077  0.0000
  O2     O2        0.637925586152091    0.478678818728992    0.679226226057824  0.0000
  O2     O2        0.244908853353835    0.263822918061166    0.324918148166060  0.0000
  O2     O2        0.266180749333018    0.714101749155243    0.311787014252447  0.0000
  O3     O3        0.754908675694312    0.256265651678564    0.658959998232978  0.0000
  O2     O2        0.745642043912532    0.722725680387311    0.676750142381574  0.0000
  O2     O2        0.143927438041121    0.251821099243703    0.132288903503130  0.0000
  O3     O3        0.364971303970645    0.717862288157231    0.114593635697032  0.0000
  O3     O3        0.860466423559965    0.245122631073150    0.868874677043826  0.0000
  O2     O2        0.638290999080012    0.725858408431307    0.859472719610987  0.0000
  O2     O2        0.843525962979728    0.753397748372132    0.871127732623821  0.0000
  O2     O2        0.659313622751947    0.228179867327262    0.853982884337184  0.0000
  O2     O2        0.172703896736444    0.755799726620739    0.116291471272286  0.0000
  O3     O3        0.337624566894853    0.183531036455381    0.132189446393612  0.0000
  O2     O2        0.629046174739280    0.470025234950165    0.031518352999729  0.0000
  O2     O2        0.863710721998064    0.502714718915653    0.041889584329561  0.0000
  O1     O1        0.377013802368903    0.427297942142120    0.941111573788363  0.0000
  O2     O2        0.128062977611195    0.506281393485372    0.955650085863846  0.0000
  O2     O2        0.754111441986479    0.264976336690748    0.050759980017567  0.0000
  O2     O2        0.738283270447761    0.708864331978320    0.053296527308499  0.0000
  O3     O3        0.234011288265549    0.262574218867198    0.927937446474733  0.0000
  O3     O3        0.257579086484771    0.681808819849085    0.912134835308811  0.0000
