data_c00645.vasp
_audit_creation_method             Generated by GULP
_audit_author_name                 Salvador R. G. Balestra
_symmetry_space_group_name_H-M     'P 1             '
_symmetry_Int_Tables_number        1

loop_
_symmetry_equiv_pos_site_id
_symmetry_equiv_pos_as_xyz
_cell_length_a                       17.1891
_cell_length_b                        7.6288
_cell_length_c                       10.3064
_cell_angle_alpha                   89.1654
_cell_angle_beta                    90.3739
_cell_angle_gamma                   89.3728

loop_
_atom_site_label
_atom_site_type_symbol
_atom_site_fract_x
_atom_site_fract_y
_atom_site_fract_z
_atom_site_charge
  Ge     Ge        0.052090000000021    0.000000000000000    0.372269999999958  0.0000
  Ge     Ge        0.355175126901742    0.662313420103555    0.277274754297264  0.0000
  Ge     Ge        0.330363389456978    0.271352554864235    0.958222822486775  0.0000
  Ge     Ge        0.168884086675767    0.734077042785895    0.975214756049519  0.0000
  Si     Si        0.456201871575450    0.973032530476031    0.361346876350712  0.0000
  Si     Si        0.949065273553607    0.001161997120875    0.633213674726302  0.0000
  Si     Si        0.553463689028846    0.000281449095528    0.619579120094110  0.0000
  Si     Si        0.556325390661023    0.001500776156316    0.106990192924885  0.0000
  Si     Si        0.943565839763843    0.987826962245074    0.122531214315875  0.0000
  Si     Si        0.445029749493682    0.986461938473941    0.866892133334440  0.0000
  Si     Si        0.052672106585686    0.018213021622675    0.885468964610517  0.0000
  Si     Si        0.157320034181963    0.309698338409045    0.269474981688251  0.0000
  Si     Si        0.842225883962072    0.301255616702200    0.709941229811895  0.0000
  Si     Si        0.659793307417081    0.697217515365492    0.705187533939202  0.0000
  Si     Si        0.839657985180352    0.703372467907976    0.709517256556980  0.0000
  Si     Si        0.662173514966198    0.294721146114796    0.709963191595037  0.0000
  Si     Si        0.172072639957244    0.714479698783609    0.280637796494680  0.0000
  Si     Si        0.336199390624106    0.256867741502109    0.268362971410026  0.0000
  Si     Si        0.663718331229953    0.293217145516893    0.012321707716713  0.0000
  Si     Si        0.837380480877687    0.699040995697948    0.012500410187300  0.0000
  Si     Si        0.351902324997853    0.676582808307834    0.969203468258722  0.0000
  Si     Si        0.149347889219986    0.325676656640638    0.965711915164836  0.0000
  Si     Si        0.657349171181366    0.693843301171784    0.007545842905858  0.0000
  Si     Si        0.843914790456776    0.298531271514126    0.012744191196527  0.0000
  O3     O3        0.097045886757760    0.199281634691708    0.351245881768735  0.0000
  O3     O3        0.422170868486865    0.779217416029449    0.365023087871072  0.0000
  O2     O2        0.895312371311808    0.176631308038877    0.622351308114851  0.0000
  O2     O2        0.606037561865951    0.823768463942927    0.616499534816968  0.0000
  O2     O2        0.893236906351012    0.831676910261664    0.625177405820157  0.0000
  O2     O2        0.608987855424327    0.168827115734603    0.625230041078061  0.0000
  O3     O3        0.120320760743991    0.833367463403140    0.373183696994892  0.0000
  O2     O2        0.382547294499823    0.104684864604518    0.346315479888532  0.0000
  O3     O3        0.013011869480305    0.998516718445971    0.525291849104464  0.0000
  O2     O2        0.501800281164714    0.016148955275792    0.491818694419514  0.0000
  O3     O3        0.974941454322154    0.976226252353872    0.267108427088126  0.0000
  O2     O2        0.516540929757376    0.999594062346105    0.245283965641178  0.0000
  O2     O2        0.991441982530724    0.998353025657633    0.771911059368568  0.0000
  O2     O2        0.496842083380241    0.993960069450240    0.740739453982576  0.0000
  O2     O2        0.616182678993477    0.162464511069305    0.103405696071321  0.0000
  O2     O2        0.885056542036450    0.827101252280930    0.102755602678625  0.0000
  O3     O3        0.377246233804031    0.130721919404447    0.856177850756264  0.0000
  O3     O3        0.123071309478703    0.881137235683322    0.872469198001810  0.0000
  O2     O2        0.410064445296485    0.792568611164056    0.881810809732872  0.0000
  O2     O2        0.084469918098279    0.216915584081887    0.887613902416160  0.0000
  O2     O2        0.601811149473243    0.817441468222744    0.090297211509374  0.0000
  O2     O2        0.898476606942589    0.172765655921304    0.099445598316937  0.0000
  O2     O2        0.493220270277036    0.036340430729804    0.995063298056366  0.0000
  O2     O2        0.014820689409113    0.968248326053472    0.023949879381747  0.0000
  O2     O2        0.159679691842957    0.509369495919239    0.316799509201776  0.0000
  O3     O3        0.356941015793705    0.444994597835115    0.325495795470049  0.0000
  O2     O2        0.863490071975491    0.502934956025465    0.679542259076927  0.0000
  O2     O2        0.638391020622352    0.495956448989092    0.677818773047694  0.0000
  O2     O2        0.243641613505609    0.224411992973955    0.282863203837993  0.0000
  O3     O3        0.263167486294211    0.751403365324570    0.295068096019959  0.0000
  O2     O2        0.752390883575552    0.265264336353046    0.675084738090570  0.0000
  O2     O2        0.749480324266396    0.733678224929255    0.671115561701827  0.0000
  O2     O2        0.131249007500605    0.309269738139831    0.119182130385225  0.0000
  O3     O3        0.382363128757943    0.672263244408141    0.116609262980805  0.0000
  O2     O2        0.857562306494191    0.257630295835009    0.861640664258577  0.0000
  O2     O2        0.644350409099705    0.739458214139582    0.855764693394914  0.0000
  O2     O2        0.851405029096267    0.743847297192555    0.861378931143516  0.0000
  O2     O2        0.649246872139771    0.249577276296092    0.861500523500724  0.0000
  O3     O3        0.142738093552057    0.757906988619857    0.135110613624821  0.0000
  O3     O3        0.358361105182778    0.246077459688147    0.118007260394726  0.0000
  O2     O2        0.635719308610646    0.492272396384999    0.038137423647622  0.0000
  O2     O2        0.865244849677375    0.499550792192045    0.042352121889845  0.0000
  O3     O3        0.348404695689193    0.485112168836598    0.910468463178133  0.0000
  O3     O3        0.147623194847442    0.525747709624669    0.921344287579058  0.0000
  O2     O2        0.754178933185386    0.267310146402251    0.047827700045755  0.0000
  O2     O2        0.746792598512845    0.724668901705193    0.045791210744983  0.0000
  O3     O3        0.232376891982061    0.235910510339487    0.940921720157846  0.0000
  O3     O3        0.267289724546358    0.767710265704575    0.967591929716390  0.0000
