data_c00697.vasp
_audit_creation_method             Generated by GULP
_audit_author_name                 Salvador R. G. Balestra
_symmetry_space_group_name_H-M     'P 1             '
_symmetry_Int_Tables_number        1

loop_
_symmetry_equiv_pos_site_id
_symmetry_equiv_pos_as_xyz
_cell_length_a                       17.1956
_cell_length_b                        7.6472
_cell_length_c                       10.2669
_cell_angle_alpha                   88.8675
_cell_angle_beta                    90.4887
_cell_angle_gamma                   90.5375

loop_
_atom_site_label
_atom_site_type_symbol
_atom_site_fract_x
_atom_site_fract_y
_atom_site_fract_z
_atom_site_charge
  Ge     Ge        0.052090000000021    0.000000000000000    0.372269999999958  0.0000
  Ge     Ge        0.834188901991971    0.306599350642791    0.706708038495033  0.0000
  Ge     Ge        0.348683765705533    0.356942970098598    0.952835184609721  0.0000
  Ge     Ge        0.162521858984766    0.323426384528328    0.958313159321037  0.0000
  Si     Si        0.451045751101950    0.019326920363351    0.356133593562438  0.0000
  Si     Si        0.948168598092664    0.015808367176103    0.629774057607643  0.0000
  Si     Si        0.544886770579511    0.018652759013482    0.621990429281686  0.0000
  Si     Si        0.556061438210454    0.012583219201454    0.106045557328516  0.0000
  Si     Si        0.940905724448780    0.015535068722902    0.123672707908116  0.0000
  Si     Si        0.441307171497447    0.039437352528951    0.866491338778432  0.0000
  Si     Si        0.050335999920037    0.029598409390797    0.884438346830400  0.0000
  Si     Si        0.169351855764160    0.295235890967898    0.265706926693233  0.0000
  Si     Si        0.337625891049217    0.728500777645373    0.275575658001803  0.0000
  Si     Si        0.658636276150512    0.726785516861945    0.711274017536879  0.0000
  Si     Si        0.838360915342309    0.716273233986749    0.705398607308977  0.0000
  Si     Si        0.651285831077431    0.323258919690640    0.711711851315849  0.0000
  Si     Si        0.158395140116619    0.702409271521564    0.277279956270258  0.0000
  Si     Si        0.347536760049266    0.326348072833031    0.265420425009667  0.0000
  Si     Si        0.655265960446617    0.325342258013503    0.017257937498209  0.0000
  Si     Si        0.842881058799191    0.708111796683293    0.010466694190301  0.0000
  Si     Si        0.150855541089469    0.723302331685727    0.978854956962310  0.0000
  Si     Si        0.332720855639461    0.754165863866814    0.972112999660532  0.0000
  Si     Si        0.663498984184030    0.722735550313953    0.015554727814360  0.0000
  Si     Si        0.834862725745279    0.307166610005635    0.017343630448808  0.0000
  O3     O3        0.116391490605602    0.172091590099795    0.354488521006551  0.0000
  O2     O2        0.389492913589913    0.858274255289085    0.362190330114734  0.0000
  O3     O3        0.893501829318240    0.183611480189860    0.612680030165143  0.0000
  O2     O2        0.605804524855318    0.859949350164328    0.628530201050001  0.0000
  O2     O2        0.891548763099592    0.846376834932087    0.619477115940046  0.0000
  O2     O2        0.588981366966878    0.203984386171048    0.636897086396873  0.0000
  O3     O3        0.101308336070955    0.803936598691337    0.368709841715474  0.0000
  O2     O2        0.406239785755983    0.203059930359013    0.346950665627488  0.0000
  O3     O3        0.015849874500854    0.013518859182180    0.527268447383471  0.0000
  O2     O2        0.502976118239368    0.016372870794126    0.484246514835016  0.0000
  O3     O3        0.973226507358159    0.007551041389592    0.268639975437154  0.0000
  O2     O2        0.508450021942847    0.995099036444036    0.236823051396881  0.0000
  O2     O2        0.985638536551635    0.017350207715916    0.773931195840436  0.0000
  O2     O2        0.479323867289023    0.991680386898545    0.730685399149547  0.0000
  O2     O2        0.600096676513299    0.199924865765809    0.103125774086831  0.0000
  O2     O2        0.899637700476747    0.830156368493073    0.093341968781050  0.0000
  O3     O3        0.414896443781814    0.238626052064457    0.866133052633143  0.0000
  O2     O2        0.102651592990673    0.855468971501743    0.887429153802762  0.0000
  O2     O2        0.364216785491974    0.919145902686598    0.888575223414490  0.0000
  O3     O3        0.105515597588484    0.195013184367080    0.859722492044940  0.0000
  O2     O2        0.617831091894953    0.855746144013497    0.104490081134115  0.0000
  O2     O2        0.880863091663600    0.175832443149588    0.113055552050855  0.0000
  O2     O2        0.500638622991133    0.992766772511901    0.982221481524562  0.0000
  O2     O2        0.011232245871606    0.053574583412488    0.025100726849569  0.0000
  O2     O2        0.141666088087445    0.495477842404542    0.280621166205295  0.0000
  O2     O2        0.367090028389881    0.529632333497302    0.294240935188145  0.0000
  O3     O3        0.860590009397438    0.520913349387660    0.675165547630345  0.0000
  O2     O2        0.632562571686881    0.527564927652230    0.683749350674790  0.0000
  O2     O2        0.259620293892483    0.281691932526338    0.309894803748119  0.0000
  O2     O2        0.247869203497199    0.740807885292223    0.318517695911712  0.0000
  O3     O3        0.737212007503029    0.279438919283848    0.666231494855902  0.0000
  O2     O2        0.748103576370172    0.752244080912059    0.669324219828536  0.0000
  O3     O3        0.162784904756283    0.240935806494908    0.116426047880499  0.0000
  O2     O2        0.344932950590493    0.789652737746406    0.125294083633100  0.0000
  O3     O3        0.846524609069954    0.252689814746301    0.869561143216246  0.0000
  O2     O2        0.650602602522296    0.769975698547519    0.863484693267909  0.0000
  O2     O2        0.851893844296715    0.754043686066761    0.858201739583990  0.0000
  O2     O2        0.643630893143970    0.281443227704094    0.865768795171541  0.0000
  O2     O2        0.142182994465962    0.776420312593987    0.130110339965795  0.0000
  O3     O3        0.356367055938355    0.289830873773416    0.114035120445765  0.0000
  O2     O2        0.632667111817820    0.525538870186304    0.044424799450772  0.0000
  O2     O2        0.865711192478579    0.505935676984837    0.036904477668500  0.0000
  O3     O3        0.374155388020199    0.575803309931485    0.936132844259907  0.0000
  O3     O3        0.121445373408366    0.529028432978212    0.955603070694793  0.0000
  O2     O2        0.744566833009302    0.294055942035718    0.056184993248104  0.0000
  O2     O2        0.754245019264665    0.738848443111070    0.052791445593223  0.0000
  O1     O1        0.255295843453831    0.324992316428170    0.900671454835722  0.0000
  O2     O2        0.241567096306992    0.729500873651965    0.940342671931452  0.0000
