data_c00669.vasp
_audit_creation_method             Generated by GULP
_audit_author_name                 Salvador R. G. Balestra
_symmetry_space_group_name_H-M     'P 1             '
_symmetry_Int_Tables_number        1

loop_
_symmetry_equiv_pos_site_id
_symmetry_equiv_pos_as_xyz
_cell_length_a                       17.2206
_cell_length_b                        7.5966
_cell_length_c                       10.2188
_cell_angle_alpha                   90.0149
_cell_angle_beta                    90.6590
_cell_angle_gamma                   91.2943

loop_
_atom_site_label
_atom_site_type_symbol
_atom_site_fract_x
_atom_site_fract_y
_atom_site_fract_z
_atom_site_charge
  Ge     Ge        0.052090000000021    0.000000000000000    0.372269999999958  0.0000
  Ge     Ge        0.854612382501616    0.335907869409033    0.723996545599460  0.0000
  Ge     Ge        0.652327449862877    0.696588047110595    0.726245620210788  0.0000
  Ge     Ge        0.856985232851586    0.349277011681083    0.046841403746022  0.0000
  Si     Si        0.456108665216042    0.017686249966501    0.374560501474343  0.0000
  Si     Si        0.955061836695151    0.026798424686624    0.634817579985030  0.0000
  Si     Si        0.548951392228405    0.001151185988885    0.638598821523724  0.0000
  Si     Si        0.559645707315808    0.011682246610329    0.121839208123403  0.0000
  Si     Si        0.948925493199796    0.026175001123687    0.112897122702414  0.0000
  Si     Si        0.444269851146938    0.019983958212536    0.883870117903427  0.0000
  Si     Si        0.062298149785767    0.013549204548084    0.877750497416390  0.0000
  Si     Si        0.161079555580533    0.313588100993125    0.292285653804828  0.0000
  Si     Si        0.351779116006559    0.706133943210558    0.293994532169951  0.0000
  Si     Si        0.831391947749943    0.736485685509269    0.723955408178174  0.0000
  Si     Si        0.673770108325488    0.286351788350860    0.733194145941227  0.0000
  Si     Si        0.172660071203576    0.722630997346477    0.295857300071759  0.0000
  Si     Si        0.340620322989010    0.300808410307167    0.291094632258181  0.0000
  Si     Si        0.676265423200764    0.302276019787843    0.042340342056790  0.0000
  Si     Si        0.827918972129790    0.740966392831507    0.038102442865228  0.0000
  Si     Si        0.338136406967271    0.307411274703466    0.986104527480063  0.0000
  Si     Si        0.168453308171593    0.726589161980164    0.992859545756298  0.0000
  Si     Si        0.348289145024822    0.706912833301420    0.989174784997425  0.0000
  Si     Si        0.158420334969153    0.323230200202979    0.989701196133750  0.0000
  Si     Si        0.651828718298404    0.698431944344963    0.036927720867081  0.0000
  O3     O3        0.101517127861868    0.201071110060114    0.377087112065002  0.0000
  O2     O2        0.410929539560981    0.828357170895676    0.378254530498113  0.0000
  O3     O3        0.922950728456782    0.221833207233582    0.637544453932190  0.0000
  O3     O3        0.581783440541503    0.806828131386144    0.640304499400588  0.0000
  O2     O2        0.882897517151584    0.902325750058551    0.678482920604359  0.0000
  O2     O2        0.621782769593791    0.132180404106904    0.667867372968336  0.0000
  O3     O3        0.122022207745130    0.840932354538371    0.387169392427501  0.0000
  O2     O2        0.392539137011667    0.170429086509482    0.375655607685266  0.0000
  O3     O3        0.984103980950757    0.980335627567438    0.492241845011526  0.0000
  O2     O2        0.511970659477337    0.042312057905349    0.498241809770611  0.0000
  O3     O3        0.000450808406363    0.959167158749193    0.230459212571254  0.0000
  O2     O2        0.508707117799653    0.036818267955736    0.248198114431649  0.0000
  O2     O2        0.029492774866472    0.002197229133755    0.730858977522769  0.0000
  O2     O2        0.480745284070172    0.028710834167157    0.741890557744728  0.0000
  O2     O2        0.629394150387852    0.155712136276330    0.123946567333380  0.0000
  O2     O2        0.867544349299597    0.917047568140887    0.095888752271972  0.0000
  O2     O2        0.381907265847627    0.173878871853609    0.893673797366563  0.0000
  O2     O2        0.122500601141943    0.856973389616256    0.898861700374910  0.0000
  O2     O2        0.402206238699587    0.830138947552726    0.900558979873708  0.0000
  O2     O2        0.103999890478431    0.204334615825197    0.896044219379421  0.0000
  O2     O2        0.592840567609195    0.814203058956893    0.121598550592898  0.0000
  O3     O3        0.924216081112644    0.226262419694607    0.132918090784487  0.0000
  O2     O2        0.510121219327158    0.051871181818583    0.992404678874436  0.0000
  O2     O2        0.992249989654295    0.991789928288605    0.977120990582128  0.0000
  O2     O2        0.147641229031565    0.519217389960050    0.315544810946846  0.0000
  O2     O2        0.367173413374622    0.501510078542886    0.323219264568752  0.0000
  O3     O3        0.869432673071465    0.555579348673814    0.682127529967438  0.0000
  O3     O3        0.636263650814079    0.473547496174695    0.705848176410496  0.0000
  O2     O2        0.250351506271824    0.269238576050179    0.327003565874302  0.0000
  O2     O2        0.263626003889392    0.749699439517505    0.330750206478966  0.0000
  O3     O3        0.760089841065004    0.281340171862602    0.677536975986882  0.0000
  O3     O3        0.744179655223215    0.751062364248434    0.669454001270178  0.0000
  O2     O2        0.143611194475984    0.264989975031025    0.139646826980995  0.0000
  O2     O2        0.365285719922142    0.749458824507697    0.141298375519466  0.0000
  O1     O1        0.870764764684343    0.296583075857618    0.886310153447353  0.0000
  O3     O3        0.640744570455022    0.756031489586117    0.887736814345440  0.0000
  O2     O2        0.822192760569999    0.727625528057805    0.880961355762689  0.0000
  O2     O2        0.682246239189858    0.254065852604013    0.889168978217200  0.0000
  O2     O2        0.157826212588084    0.779493321842626    0.144390827598331  0.0000
  O2     O2        0.351855876646556    0.259511175983273    0.137864856962668  0.0000
  O2     O2        0.633623729225780    0.490349365317681    0.056165119721118  0.0000
  O3     O3        0.874260396363491    0.570187756858887    0.082242767091171  0.0000
  O2     O2        0.368954139272900    0.505639946283968    0.957928170276233  0.0000
  O2     O2        0.136690001055728    0.526956005781855    0.969313399938123  0.0000
  O3     O3        0.762742052727308    0.311888733386069    0.098029901311358  0.0000
  O2     O2        0.739582149431531    0.738724944365883    0.088376115259507  0.0000
  O2     O2        0.247099780034918    0.292951311994491    0.951917081745952  0.0000
  O2     O2        0.258596584531404    0.741054822277171    0.955431482444878  0.0000
