data_c00641.vasp
_audit_creation_method             Generated by GULP
_audit_author_name                 Salvador R. G. Balestra
_symmetry_space_group_name_H-M     'P 1             '
_symmetry_Int_Tables_number        1

loop_
_symmetry_equiv_pos_site_id
_symmetry_equiv_pos_as_xyz
_cell_length_a                       17.1274
_cell_length_b                        7.6253
_cell_length_c                       10.2596
_cell_angle_alpha                   89.2562
_cell_angle_beta                    90.2350
_cell_angle_gamma                   90.1962

loop_
_atom_site_label
_atom_site_type_symbol
_atom_site_fract_x
_atom_site_fract_y
_atom_site_fract_z
_atom_site_charge
  Ge     Ge        0.052090000000021    0.000000000000000    0.372269999999958  0.0000
  Ge     Ge        0.334903905248783    0.738140494975335    0.286258472724346  0.0000
  Ge     Ge        0.846008077059305    0.687724051783574    0.044508520992132  0.0000
  Ge     Ge        0.329232555527805    0.735903407290865    0.969828990498758  0.0000
  Si     Si        0.454189299508178    0.018662961824738    0.370224224978957  0.0000
  Si     Si        0.951068033448047    0.012689061065795    0.636575379182707  0.0000
  Si     Si        0.554533099576171    0.026012387082170    0.625811456941783  0.0000
  Si     Si        0.547758876703597    0.998488817765898    0.107267040869236  0.0000
  Si     Si        0.943445722599482    0.005575625961268    0.120680618518241  0.0000
  Si     Si        0.438672682431030    0.020896427772247    0.863186195371683  0.0000
  Si     Si        0.054911483751649    0.999772902957167    0.884377523184142  0.0000
  Si     Si        0.173761904852190    0.282440776149072    0.291393691050411  0.0000
  Si     Si        0.836969155891258    0.305245048415728    0.730398333226277  0.0000
  Si     Si        0.666621945658868    0.728531305346426    0.727621615148790  0.0000
  Si     Si        0.845497624426863    0.709326730779717    0.733002421201796  0.0000
  Si     Si        0.658178805618176    0.326235245228196    0.718798636383293  0.0000
  Si     Si        0.153897434142788    0.683520444364862    0.291197501072243  0.0000
  Si     Si        0.354403833699336    0.327164196509484    0.280843438589681  0.0000
  Si     Si        0.648176782896364    0.314723225237788    0.022449839414602  0.0000
  Si     Si        0.348310468805038    0.329476719050891    0.978880347659719  0.0000
  Si     Si        0.148525569953856    0.682261326222144    0.983913278510113  0.0000
  Si     Si        0.166980165218148    0.284926814257080    0.988978134882359  0.0000
  Si     Si        0.662994508859793    0.711759848404700    0.033619554208589  0.0000
  Si     Si        0.827817435288470    0.284915479707956    0.036052342842417  0.0000
  O3     O3        0.129970538840857    0.144791674802850    0.382391597388778  0.0000
  O3     O3        0.388148679191206    0.872067434174363    0.387039900409443  0.0000
  O2     O2        0.892933380670710    0.176617605749691    0.652863137937868  0.0000
  O2     O2        0.612517643084014    0.863128328526585    0.648681774580443  0.0000
  O2     O2        0.903841412922126    0.830367225136754    0.649461917017919  0.0000
  O2     O2        0.602376797612709    0.207958968339115    0.630222281456484  0.0000
  O3     O3        0.088520904179929    0.789791226354161    0.366683197741260  0.0000
  O2     O2        0.413022981606576    0.208917957916454    0.366885291228044  0.0000
  O3     O3        0.986759064579007    0.024644966577383    0.495144838347038  0.0000
  O2     O2        0.517977712996973    0.010361894929602    0.483554814882353  0.0000
  O3     O3        0.000664033636899    0.056893767023333    0.234039296848226  0.0000
  O2     O2        0.496923354831016    0.979126806861189    0.235207030791160  0.0000
  O2     O2        0.023252176643340    0.018090318502175    0.737908724260003  0.0000
  O2     O2        0.484738993874527    0.026098324416435    0.728781615573213  0.0000
  O2     O2        0.588135231418247    0.190021247044369    0.099439617946842  0.0000
  O3     O3        0.911726930073939    0.807639848380729    0.134515113371833  0.0000
  O2     O2        0.401866940201625    0.211960505413828    0.887024261984900  0.0000
  O2     O2        0.084216156454280    0.800714838658581    0.909751559106224  0.0000
  O3     O3        0.371198028494018    0.876947195353941    0.858215427969927  0.0000
  O2     O2        0.125136768579890    0.139308980010094    0.901488634877413  0.0000
  O2     O2        0.612412008837575    0.846896773572219    0.115094605241050  0.0000
  O2     O2        0.866462658419623    0.127995900782086    0.118232455205921  0.0000
  O2     O2        0.494442502373502    0.960898151671706    0.982147105498395  0.0000
  O2     O2        0.986002676115855    0.041750492254837    0.983139308014128  0.0000
  O2     O2        0.139405619918497    0.476448150943583    0.313584126833764  0.0000
  O3     O3        0.372820506311808    0.528603785979528    0.299792417904226  0.0000
  O2     O2        0.865298742650301    0.505371791862009    0.707779942894216  0.0000
  O2     O2        0.638736912880518    0.530971250945575    0.695382488538542  0.0000
  O2     O2        0.265650228931143    0.283962512059689    0.324381653160913  0.0000
  O3     O3        0.239355588904166    0.736943026800551    0.339892359932523  0.0000
  O2     O2        0.747682315548739    0.286785015074877    0.680763552352209  0.0000
  O2     O2        0.756906061497548    0.751420670846603    0.686770837680318  0.0000
  O2     O2        0.161043512964946    0.227527440133225    0.140473022829013  0.0000
  O1     O1        0.337807322448626    0.806311782291997    0.126621641002401  0.0000
  O2     O2        0.839015773488098    0.255626598921636    0.882277488013712  0.0000
  O2     O2        0.661223278569014    0.765504916836756    0.880994793260704  0.0000
  O3     O3        0.857036450583005    0.751046657369372    0.883668663592752  0.0000
  O2     O2        0.641945532738561    0.273582838390590    0.869065384678786  0.0000
  O2     O2        0.149144739055748    0.730842456515377    0.136737717110037  0.0000
  O2     O2        0.364222346215525    0.275266682818863    0.129343807729938  0.0000
  O2     O2        0.626549223338988    0.516132212321492    0.050342931011118  0.0000
  O3     O3        0.866055147389309    0.469189320743428    0.072154587029993  0.0000
  O3     O3        0.370024750255509    0.529697832817353    0.956009337775091  0.0000
  O2     O2        0.127282314069286    0.475899512582066    0.966645482574549  0.0000
  O2     O2        0.736233800725173    0.281017058199424    0.070970799995174  0.0000
  O3     O3        0.749945891868294    0.718847175017743    0.087641646440172  0.0000
  O2     O2        0.257076756326296    0.295732308292503    0.946047199220339  0.0000
  O3     O3        0.232239044699132    0.721529694501919    0.924873247803164  0.0000
