data_c00605.vasp
_audit_creation_method             Generated by GULP
_audit_author_name                 Salvador R. G. Balestra
_symmetry_space_group_name_H-M     'P 1             '
_symmetry_Int_Tables_number        1

loop_
_symmetry_equiv_pos_site_id
_symmetry_equiv_pos_as_xyz
_cell_length_a                       17.2314
_cell_length_b                        7.6423
_cell_length_c                       10.1860
_cell_angle_alpha                   89.4588
_cell_angle_beta                    89.2700
_cell_angle_gamma                   91.2438

loop_
_atom_site_label
_atom_site_type_symbol
_atom_site_fract_x
_atom_site_fract_y
_atom_site_fract_z
_atom_site_charge
  Ge     Ge        0.052090000000021    0.000000000000000    0.372269999999958  0.0000
  Ge     Ge        0.336343996634299    0.747170917166342    0.281973680682707  0.0000
  Ge     Ge        0.662834158715924    0.711664794277000    0.700160917736352  0.0000
  Ge     Ge        0.353789286705917    0.361358819146474    0.954275572744571  0.0000
  Si     Si        0.454110566327626    0.036303937265082    0.357680816247970  0.0000
  Si     Si        0.957647279181376    0.025852504716265    0.642026638326575  0.0000
  Si     Si        0.554694856631980    0.008696684433296    0.609658308687106  0.0000
  Si     Si        0.556238843742190    0.012882062563643    0.100745786191002  0.0000
  Si     Si        0.942479458958485    0.032378054266326    0.129768493515663  0.0000
  Si     Si        0.447335795267821    0.049389051545939    0.856006513108866  0.0000
  Si     Si        0.059694369906782    0.022955211529929    0.896347168989711  0.0000
  Si     Si        0.175253991302585    0.294440944867755    0.264814266964785  0.0000
  Si     Si        0.847102181716532    0.319597092851090    0.717012970117513  0.0000
  Si     Si        0.844962162891702    0.721927741158916    0.704928745438793  0.0000
  Si     Si        0.667265081362146    0.302186260488186    0.713860573860912  0.0000
  Si     Si        0.155053668710575    0.693528229337376    0.282814679045629  0.0000
  Si     Si        0.353530418845569    0.338047279260971    0.265530038685775  0.0000
  Si     Si        0.662368594505223    0.319057747807741    0.020322631392193  0.0000
  Si     Si        0.840171793103003    0.727552575761478    0.013907471322093  0.0000
  Si     Si        0.157906375096792    0.712732775684534    0.976105942969626  0.0000
  Si     Si        0.336716384597979    0.766059074196373    0.970939426825651  0.0000
  Si     Si        0.172942072576194    0.319899953058886    0.957193853858400  0.0000
  Si     Si        0.661688886883524    0.719757525444332    0.013591664699749  0.0000
  Si     Si        0.841757723876014    0.329048118853479    0.023093403868675  0.0000
  O3     O3        0.126852158517978    0.147640660387066    0.340985262160481  0.0000
  O3     O3        0.390782365439861    0.882337301136031    0.380649037163359  0.0000
  O2     O2        0.902061357322816    0.193637393346147    0.634643884544827  0.0000
  O3     O3        0.597772411386784    0.825936017645077    0.608579474818665  0.0000
  O2     O2        0.905109126181086    0.848957508874455    0.626186659090301  0.0000
  O2     O2        0.620211583808889    0.156743158335294    0.635146563387935  0.0000
  O3     O3        0.089783749121602    0.792891179496685    0.362536541505085  0.0000
  O2     O2        0.410580015315421    0.220289653837262    0.351267334966173  0.0000
  O3     O3        0.022225260120796    0.036739843298476    0.531137682046612  0.0000
  O2     O2        0.517560349338273    0.045872724318087    0.469881135794695  0.0000
  O3     O3        0.971070791528774    0.022663784620283    0.276932069482203  0.0000
  O2     O2        0.498145076917138    0.995680158309370    0.222018197774612  0.0000
  O2     O2        0.997970022776765    0.023551862589421    0.782700537957881  0.0000
  O2     O2        0.485289228881548    0.010125993530075    0.715908636447091  0.0000
  O2     O2        0.608654085634238    0.190707097836083    0.110009803088505  0.0000
  O2     O2        0.892554785879584    0.859092712112134    0.096400780846121  0.0000
  O3     O3        0.418105912093561    0.246445804566779    0.859030464735160  0.0000
  O2     O2        0.103034424507809    0.838189114140048    0.893548076692613  0.0000
  O2     O2        0.373480503778351    0.918566991673630    0.878449598646762  0.0000
  O2     O2        0.121216114647622    0.183065278275604    0.875230518648130  0.0000
  O2     O2        0.610006852797216    0.843179524372555    0.104066366467756  0.0000
  O2     O2        0.891592758645090    0.205420997158055    0.114894485513354  0.0000
  O2     O2        0.509684429689991    0.012143532007070    0.966774135556695  0.0000
  O2     O2        0.018343839561096    0.047447717538716    0.036924000204561  0.0000
  O2     O2        0.140511525212326    0.484726366510028    0.295416965148216  0.0000
  O3     O3        0.372846863787703    0.539207404420985    0.290459900763209  0.0000
  O2     O2        0.869507950621330    0.521042799507878    0.683272781014471  0.0000
  O3     O3        0.639948964105153    0.493406967002463    0.677055582120168  0.0000
  O2     O2        0.264561702990181    0.293479753470338    0.310151280939685  0.0000
  O3     O3        0.240497693569629    0.744075919201674    0.332891599810396  0.0000
  O2     O2        0.758095424349172    0.282479955526239    0.678077816974465  0.0000
  O3     O3        0.758704965218024    0.749005434091572    0.654275599778012  0.0000
  O2     O2        0.174475399800901    0.259198449382206    0.109175369007234  0.0000
  O3     O3        0.342861864225407    0.820856118650302    0.121449850351514  0.0000
  O2     O2        0.856487411113917    0.280106184962371    0.871692588065880  0.0000
  O3     O3        0.651753513002159    0.769119106347877    0.862357731055696  0.0000
  O2     O2        0.848075807674132    0.767869185091361    0.859297861301367  0.0000
  O2     O2        0.653095667852890    0.266657307492808    0.868804235690974  0.0000
  O2     O2        0.149010947007574    0.753491117116220    0.130176331830220  0.0000
  O3     O3        0.364439976208162    0.290346986651141    0.113674802002910  0.0000
  O2     O2        0.635217678482421    0.517756778399347    0.039646259928867  0.0000
  O2     O2        0.867174808230840    0.530742121812878    0.046271986929025  0.0000
  O3     O3        0.377169590589970    0.582055044372908    0.945560393863562  0.0000
  O2     O2        0.134715514093195    0.511538254795178    0.945617642184662  0.0000
  O2     O2        0.751498391620608    0.300268121270774    0.061686339455507  0.0000
  O2     O2        0.750782924712881    0.747951732705406    0.056188981016449  0.0000
  O3     O3        0.259811930569314    0.326080996849270    0.901751595758514  0.0000
  O2     O2        0.246708203453706    0.744802589416772    0.931637818463425  0.0000
