data_c00665.vasp
_audit_creation_method             Generated by GULP
_audit_author_name                 Salvador R. G. Balestra
_symmetry_space_group_name_H-M     'P 1             '
_symmetry_Int_Tables_number        1

loop_
_symmetry_equiv_pos_site_id
_symmetry_equiv_pos_as_xyz
_cell_length_a                       17.2584
_cell_length_b                        7.6578
_cell_length_c                       10.1972
_cell_angle_alpha                   90.4917
_cell_angle_beta                    90.5242
_cell_angle_gamma                   90.2322

loop_
_atom_site_label
_atom_site_type_symbol
_atom_site_fract_x
_atom_site_fract_y
_atom_site_fract_z
_atom_site_charge
  Ge     Ge        0.052090000000021    0.000000000000000    0.372269999999958  0.0000
  Ge     Ge        0.832639644911312    0.288318257348774    0.704517188065324  0.0000
  Ge     Ge        0.660350131388283    0.724270639161511    0.706592467888947  0.0000
  Ge     Ge        0.150470894689432    0.683533733236851    0.959520286852173  0.0000
  Si     Si        0.449451212050841    0.015815025993353    0.360633852739013  0.0000
  Si     Si        0.949770040371462    0.001199507572677    0.631822832642035  0.0000
  Si     Si        0.543670870579813    0.011007039912426    0.623629124814687  0.0000
  Si     Si        0.557170376779077    0.009541825166256    0.119066864701463  0.0000
  Si     Si        0.938311573793870    0.001632851762148    0.126996612645548  0.0000
  Si     Si        0.442458339757569    0.996283800588512    0.879532603163967  0.0000
  Si     Si        0.048824134225359    0.994396195176373    0.887317357193242  0.0000
  Si     Si        0.167365255263101    0.293049391683681    0.271046056266562  0.0000
  Si     Si        0.336905099994459    0.716624452539211    0.261184132014677  0.0000
  Si     Si        0.843347049914392    0.697497698907047    0.707995319389256  0.0000
  Si     Si        0.650404217507921    0.315020300599139    0.703715546930059  0.0000
  Si     Si        0.159847117361088    0.700333405416186    0.268941602590762  0.0000
  Si     Si        0.345305806858699    0.316511734074770    0.267397167906138  0.0000
  Si     Si        0.654205682898153    0.317965312773431    0.011947171837432  0.0000
  Si     Si        0.841227230969087    0.692150591085255    0.015752503579691  0.0000
  Si     Si        0.342894261974979    0.307426446224931    0.961077073158630  0.0000
  Si     Si        0.331669812816586    0.701936448354083    0.951840291501543  0.0000
  Si     Si        0.163676330155107    0.277807588566162    0.967486609980548  0.0000
  Si     Si        0.662556912276026    0.717937693534247    0.017814393459138  0.0000
  Si     Si        0.832183176032492    0.292116015040820    0.016733959511603  0.0000
  O3     O3        0.113890456245953    0.176728053937462    0.360471775972943  0.0000
  O2     O2        0.392644922279637    0.852280115401797    0.335176779584360  0.0000
  O3     O3        0.887676608901631    0.153231871609323    0.608709741088568  0.0000
  O3     O3        0.606418819014465    0.859519658430363    0.609580691236026  0.0000
  O2     O2        0.903443129896918    0.817484973085060    0.629922548414679  0.0000
  O2     O2        0.588827706239638    0.195351230550023    0.625362326922716  0.0000
  O3     O3        0.103107477829582    0.808322912430100    0.359571416572361  0.0000
  O2     O2        0.403200533897494    0.197164760262281    0.350205669055956  0.0000
  O3     O3        0.017688229783638    0.002442858993751    0.529654319576216  0.0000
  O2     O2        0.481513179677103    0.004134317838163    0.507265460456389  0.0000
  O3     O3        0.971410043470656    0.009277651620104    0.272474967752298  0.0000
  O2     O2        0.521958570954763    0.012543139412378    0.263416410496172  0.0000
  O2     O2        0.987463976415336    0.037686233749610    0.775093914765124  0.0000
  O2     O2        0.499170982073619    0.982123525391096    0.758833395293805  0.0000
  O2     O2        0.598172138072631    0.195619858383333    0.095212621846388  0.0000
  O2     O2        0.896587126680707    0.814502737876453    0.103638333626118  0.0000
  O2     O2        0.396701304408253    0.179807813437886    0.876445389265292  0.0000
  O3     O3        0.083820523157649    0.802206482475683    0.871013939992159  0.0000
  O2     O2        0.382244623232484    0.836065708894434    0.868758645452936  0.0000
  O2     O2        0.120418328825405    0.130832927707506    0.881325448113606  0.0000
  O2     O2        0.617659011237060    0.850029233628072    0.113442480343506  0.0000
  O2     O2        0.878850995937454    0.161565878000002    0.110170837993869  0.0000
  O2     O2        0.489334739699941    0.976366272777356    0.014312639767706  0.0000
  O2     O2        0.009539998135117    0.020565064621087    0.028393818779984  0.0000
  O2     O2        0.142305376663055    0.494591878506919    0.282657679808102  0.0000
  O2     O2        0.365339428014171    0.520182572628176    0.292533071200360  0.0000
  O3     O3        0.864481775590544    0.498855641524748    0.680927816536133  0.0000
  O3     O3        0.628808662295500    0.513615148224374    0.680177538503806  0.0000
  O2     O2        0.257698554076748    0.275688186144428    0.311683444362343  0.0000
  O2     O2        0.249087845396521    0.741227648001481    0.310485644361093  0.0000
  O3     O3        0.736739223013309    0.274461774872208    0.656368666392509  0.0000
  O3     O3        0.756391026210359    0.739133892087985    0.662830833894763  0.0000
  O2     O2        0.157142159111110    0.229056770009492    0.120765523846251  0.0000
  O2     O2        0.336694869446421    0.749994104600705    0.105968913196052  0.0000
  O3     O3        0.840475339505360    0.231994884336410    0.867608111124943  0.0000
  O3     O3        0.651294871141756    0.780582155416600    0.869981629620867  0.0000
  O2     O2        0.850288264862098    0.740383308753395    0.863727014537613  0.0000
  O2     O2        0.646798123005006    0.270432659107397    0.858732001237128  0.0000
  O3     O3        0.144748638877469    0.755683853357948    0.119713045152601  0.0000
  O2     O2        0.355933596951084    0.268668057841393    0.114552231760179  0.0000
  O2     O2        0.630543889702043    0.520092055044757    0.034605749903745  0.0000
  O2     O2        0.864766552292910    0.489968485228683    0.036601820702399  0.0000
  O2     O2        0.365209272513334    0.506787294504304    0.928556760393877  0.0000
  O3     O3        0.126841242576286    0.465615974486036    0.942791499525501  0.0000
  O2     O2        0.742317304806028    0.287116801300457    0.058631577242048  0.0000
  O2     O2        0.752925195960733    0.722705389108752    0.058237368577040  0.0000
  O2     O2        0.253145406438078    0.277045822714578    0.923922734705413  0.0000
  O3     O3        0.243773584713012    0.712423744977740    0.904215148570427  0.0000
