data_c00682.vasp
_audit_creation_method             Generated by GULP
_audit_author_name                 Salvador R. G. Balestra
_symmetry_space_group_name_H-M     'P 1             '
_symmetry_Int_Tables_number        1

loop_
_symmetry_equiv_pos_site_id
_symmetry_equiv_pos_as_xyz
_cell_length_a                       17.1843
_cell_length_b                        7.6283
_cell_length_c                       10.3343
_cell_angle_alpha                   89.2117
_cell_angle_beta                    90.4770
_cell_angle_gamma                   90.4144

loop_
_atom_site_label
_atom_site_type_symbol
_atom_site_fract_x
_atom_site_fract_y
_atom_site_fract_z
_atom_site_charge
  Ge     Ge        0.052090000000021    0.000000000000000    0.372269999999958  0.0000
  Ge     Ge        0.847549022692619    0.330450405004513    0.699087077162972  0.0000
  Ge     Ge        0.667409408611341    0.266428916249058    0.006002218514905  0.0000
  Ge     Ge        0.827545714979554    0.728459074820402    0.016342558483061  0.0000
  Si     Si        0.450848292156818    0.994305056784830    0.356039643789287  0.0000
  Si     Si        0.950552345383211    0.018631271745118    0.630199380992950  0.0000
  Si     Si        0.547452422870049    0.996742343496630    0.618220466409540  0.0000
  Si     Si        0.554063043752351    0.981457382374074    0.105625231241298  0.0000
  Si     Si        0.941913376089150    0.014938576012975    0.123248570831812  0.0000
  Si     Si        0.442294036779184    0.011447709823835    0.866572295452583  0.0000
  Si     Si        0.052357920319661    0.998645897123698    0.886978555180014  0.0000
  Si     Si        0.161796744950067    0.300651068775041    0.272024809254541  0.0000
  Si     Si        0.344619982392465    0.695626422083465    0.266060301772880  0.0000
  Si     Si        0.650850712423626    0.686731786783857    0.709416206617613  0.0000
  Si     Si        0.831126090462461    0.734530686565430    0.707615717254102  0.0000
  Si     Si        0.662950120104489    0.285506022814737    0.700122333337809  0.0000
  Si     Si        0.165118497734163    0.706752273662093    0.267342345283758  0.0000
  Si     Si        0.341798930133830    0.292131042428026    0.264487439829980  0.0000
  Si     Si        0.335966299639673    0.299578959880050    0.963292504049395  0.0000
  Si     Si        0.162109791036409    0.707726353459183    0.967250490113838  0.0000
  Si     Si        0.342540498195340    0.699880261893684    0.964338228693046  0.0000
  Si     Si        0.155184572738368    0.305163881842531    0.972836308504271  0.0000
  Si     Si        0.646962901105271    0.672661288916305    0.012422423806200  0.0000
  Si     Si        0.849612405371738    0.322792782414568    0.006744917299960  0.0000
  O3     O3        0.108606023667227    0.187335420145624    0.365193920489363  0.0000
  O2     O2        0.399124033414227    0.817440667687948    0.353544328847794  0.0000
  O3     O3        0.912802797783298    0.209315061480688    0.612390594092314  0.0000
  O2     O2        0.592124612112029    0.812015735897254    0.631071372851893  0.0000
  O2     O2        0.877353037658199    0.883608898861013    0.627255762663072  0.0000
  O2     O2        0.609489095027138    0.156346868603541    0.614053685383269  0.0000
  O3     O3        0.111255681832741    0.821145456412494    0.354813572452774  0.0000
  O2     O2        0.395511550057009    0.163923385184897    0.349350537605666  0.0000
  O3     O3        0.013274574890083    0.978894737571829    0.523948050552425  0.0000
  O2     O2        0.499965173974819    0.998430933109284    0.485995518382828  0.0000
  O3     O3        0.975305094569866    0.010569541114231    0.266635600222777  0.0000
  O2     O2        0.509661635479528    0.996518014398177    0.238240712290186  0.0000
  O2     O2        0.993306354961702    0.000892467044462    0.768743698857627  0.0000
  O2     O2        0.485668637560426    0.018684854744116    0.731653897887584  0.0000
  O3     O3        0.625828221607434    0.114967790269448    0.107751474851295  0.0000
  O3     O3        0.874116984668865    0.870980155804854    0.116558952015149  0.0000
  O2     O2        0.381046370792359    0.170681057126143    0.869656662338292  0.0000
  O2     O2        0.112249711246446    0.836669308287166    0.875428730846325  0.0000
  O2     O2        0.396561198909530    0.826398920681391    0.878745043747988  0.0000
  O2     O2        0.099959154869761    0.182382328256997    0.886842185479092  0.0000
  O2     O2        0.582037065964091    0.781724244927446    0.088159711655877  0.0000
  O2     O2        0.910333042147120    0.208932434690159    0.091521094579611  0.0000
  O2     O2        0.502090995985269    0.042129036360500    0.983361474801060  0.0000
  O2     O2        0.007065246022990    0.963890190422840    0.019851313217831  0.0000
  O2     O2        0.143517308656648    0.504019312131474    0.292370711843734  0.0000
  O2     O2        0.365071345933795    0.492863477799810    0.294216290851280  0.0000
  O3     O3        0.851100875227092    0.547049170236822    0.649535640179352  0.0000
  O2     O2        0.647075244709541    0.488382620369303    0.656935754591873  0.0000
  O2     O2        0.252148443972001    0.259743402963207    0.301756855169695  0.0000
  O2     O2        0.255792802455704    0.736060042842833    0.302094646696659  0.0000
  O3     O3        0.753803521902064    0.249338812537027    0.682401630461253  0.0000
  O2     O2        0.738055643814191    0.763843379328538    0.695626377829726  0.0000
  O2     O2        0.142271788475333    0.251479717586333    0.122973290029877  0.0000
  O2     O2        0.358471732233183    0.741356994679022    0.114934118523298  0.0000
  O3     O3        0.876714350731021    0.326364338014953    0.858906084468895  0.0000
  O2     O2        0.626945565731496    0.681197502077213    0.859228307170349  0.0000
  O3     O3        0.855220236584908    0.750267984331813    0.857254816178601  0.0000
  O3     O3        0.637974883965171    0.249579530133921    0.847196024657994  0.0000
  O2     O2        0.150913613677413    0.758889198557836    0.116878920566894  0.0000
  O2     O2        0.353537598740258    0.251528802552026    0.113161470460530  0.0000
  O3     O3        0.647322922463450    0.474545948822493    0.061492301111374  0.0000
  O3     O3        0.846184810149841    0.514885346472412    0.064882240639476  0.0000
  O2     O2        0.363627841074331    0.498896362836244    0.934359479816801  0.0000
  O2     O2        0.133254710608695    0.507941245328877    0.946150466509315  0.0000
  O3     O3        0.765717515872776    0.229901297758005    0.011072952818446  0.0000
  O3     O3        0.729707685545585    0.765604306544222    0.032925521580125  0.0000
  O2     O2        0.244494364662748    0.276791330773215    0.934555013517111  0.0000
  O2     O2        0.252225345330023    0.730792892874701    0.929496034723846  0.0000
