data_c00648.vasp
_audit_creation_method             Generated by GULP
_audit_author_name                 Salvador R. G. Balestra
_symmetry_space_group_name_H-M     'P 1             '
_symmetry_Int_Tables_number        1

loop_
_symmetry_equiv_pos_site_id
_symmetry_equiv_pos_as_xyz
_cell_length_a                       17.1680
_cell_length_b                        7.6304
_cell_length_c                       10.2947
_cell_angle_alpha                   88.8400
_cell_angle_beta                    90.1187
_cell_angle_gamma                   89.8576

loop_
_atom_site_label
_atom_site_type_symbol
_atom_site_fract_x
_atom_site_fract_y
_atom_site_fract_z
_atom_site_charge
  Ge     Ge        0.052090000000021    0.000000000000000    0.372269999999958  0.0000
  Ge     Ge        0.354835840189550    0.681958312218846    0.272248382152461  0.0000
  Ge     Ge        0.336670924139175    0.285958386793664    0.957593076596251  0.0000
  Ge     Ge        0.651838963975018    0.674617083883487    0.010720804578977  0.0000
  Si     Si        0.457872011153620    0.988240138635536    0.359880691504260  0.0000
  Si     Si        0.956104163266338    0.004340515384053    0.640899964298379  0.0000
  Si     Si        0.559000552052067    0.997607097786439    0.614802640596026  0.0000
  Si     Si        0.554170727242334    0.989200226285873    0.102448533356085  0.0000
  Si     Si        0.942903961821436    0.993580045429436    0.126240568747132  0.0000
  Si     Si        0.446398847976598    0.001646412315194    0.859006842032852  0.0000
  Si     Si        0.058794545552386    0.011229118467825    0.895088837820107  0.0000
  Si     Si        0.160970109563504    0.307320425351014    0.269886954024043  0.0000
  Si     Si        0.850756122600954    0.309408755833450    0.711836726528644  0.0000
  Si     Si        0.661196382872324    0.690382495422144    0.701017589014099  0.0000
  Si     Si        0.839892109888980    0.711079034430127    0.712983082947438  0.0000
  Si     Si        0.671379459553676    0.286957785386948    0.703458142309186  0.0000
  Si     Si        0.172890831049372    0.711358459375742    0.277081118596123  0.0000
  Si     Si        0.339284985144916    0.267303897183995    0.265058469513124  0.0000
  Si     Si        0.668105721322812    0.271143142950578    0.007414142604128  0.0000
  Si     Si        0.834475230698948    0.703330328048910    0.018284378534806  0.0000
  Si     Si        0.172287809307266    0.721410982585963    0.973885606668024  0.0000
  Si     Si        0.353209384264694    0.691382648715938    0.966191040165938  0.0000
  Si     Si        0.155225449490611    0.325823964849600    0.966365917146939  0.0000
  Si     Si        0.848043641097823    0.306133420421880    0.014497813030621  0.0000
  O3     O3        0.099533302811893    0.196670006589081    0.350553050932326  0.0000
  O3     O3        0.422104914806390    0.795059148760176    0.362056590956831  0.0000
  O2     O2        0.909305766092202    0.189193713149036    0.630910066243229  0.0000
  O2     O2        0.605485453664908    0.813380723372442    0.611734966265435  0.0000
  O2     O2        0.893730124691161    0.846197125950494    0.633692459912490  0.0000
  O2     O2        0.620543612376009    0.156923262674180    0.617787143042356  0.0000
  O3     O3        0.117917238514361    0.831445390675292    0.360533198978140  0.0000
  O2     O2        0.386608318084776    0.126421703122053    0.352609030406404  0.0000
  O3     O3        0.017885193068025    0.993066921836353    0.528813898438573  0.0000
  O2     O2        0.507489483558457    0.021105471889756    0.487640167641668  0.0000
  O3     O3        0.972585365892604    0.980109194212290    0.271915212554280  0.0000
  O2     O2        0.515365564234015    0.022422981876221    0.239648181592011  0.0000
  O2     O2        0.000916035434975    0.985561240265626    0.777171530710081  0.0000
  O2     O2        0.501906713429737    0.003347515174056    0.736460032257146  0.0000
  O2     O2        0.630118247187013    0.112494392694026    0.088514608281910  0.0000
  O2     O2        0.882402016209197    0.837682156646233    0.103404175951706  0.0000
  O3     O3        0.381994252036860    0.152178526839976    0.848823095136662  0.0000
  O2     O2        0.128759228270480    0.869481306988964    0.887725674593764  0.0000
  O2     O2        0.405002579321418    0.812414549974988    0.870361209659011  0.0000
  O2     O2        0.093057915076027    0.208580831966079    0.889130065839885  0.0000
  O3     O3        0.582508972448682    0.790026559473620    0.093591024427896  0.0000
  O2     O2        0.902076606554649    0.182306581651545    0.103207978872732  0.0000
  O2     O2        0.494623842212179    0.045281229253304    0.988795496670170  0.0000
  O2     O2        0.016059291734356    0.973387615759135    0.031146942617758  0.0000
  O2     O2        0.144276911354270    0.511324631039028    0.293114468413853  0.0000
  O3     O3        0.373386387356762    0.460271451600443    0.282616372829863  0.0000
  O2     O2        0.870046594154573    0.513999488069164    0.686634691028281  0.0000
  O2     O2        0.642528879390639    0.486138708944183    0.676730485584946  0.0000
  O2     O2        0.249495347097564    0.262890915596133    0.313009083693062  0.0000
  O3     O3        0.261593163200052    0.725897570668991    0.323930838574196  0.0000
  O2     O2        0.762379775671767    0.269838063268321    0.667211736634436  0.0000
  O2     O2        0.750954425160672    0.730003049580732    0.664165875537510  0.0000
  O2     O2        0.152823245002178    0.265203119953101    0.117429834255102  0.0000
  O3     O3        0.366889458204578    0.751354140614001    0.112615741773972  0.0000
  O2     O2        0.861725229389218    0.261328331040776    0.864025578889983  0.0000
  O3     O3        0.644799080049980    0.735646168402997    0.849188754489139  0.0000
  O2     O2        0.841158560514965    0.752745925555126    0.865662986696361  0.0000
  O2     O2        0.660472483589618    0.234935181033440    0.854158466452264  0.0000
  O2     O2        0.168926713534439    0.770565053182721    0.125231208404203  0.0000
  O3     O3        0.343028179832989    0.210834451368416    0.116048028770338  0.0000
  O3     O3        0.629112274569217    0.456231862216383    0.036039506134181  0.0000
  O2     O2        0.869252552072814    0.507619727715184    0.042114549743536  0.0000
  O3     O3        0.377775430567171    0.492233314220360    0.948405852332011  0.0000
  O2     O2        0.132795427694107    0.531808668006860    0.950846149706473  0.0000
  O2     O2        0.758129279735710    0.275889809011460    0.049832578850548  0.0000
  O3     O3        0.745661556975440    0.711503888960557    0.062448171717944  0.0000
  O3     O3        0.240376809633621    0.295474795312225    0.910547823240415  0.0000
  O2     O2        0.261871608546244    0.713611056327579    0.929728444243077  0.0000
