data_c00630.vasp
_audit_creation_method             Generated by GULP
_audit_author_name                 Salvador R. G. Balestra
_symmetry_space_group_name_H-M     'P 1             '
_symmetry_Int_Tables_number        1

loop_
_symmetry_equiv_pos_site_id
_symmetry_equiv_pos_as_xyz
_cell_length_a                       17.1679
_cell_length_b                        7.6424
_cell_length_c                       10.1841
_cell_angle_alpha                   89.4272
_cell_angle_beta                    89.1804
_cell_angle_gamma                   91.0753

loop_
_atom_site_label
_atom_site_type_symbol
_atom_site_fract_x
_atom_site_fract_y
_atom_site_fract_z
_atom_site_charge
  Ge     Ge        0.052090000000021    0.000000000000000    0.372269999999958  0.0000
  Ge     Ge        0.337513174851076    0.758971254856371    0.274235707253288  0.0000
  Ge     Ge        0.359140143902346    0.340085663537049    0.268746008889223  0.0000
  Ge     Ge        0.355518487158032    0.354016820986220    0.951188368556258  0.0000
  Si     Si        0.459325020433282    0.035795448903752    0.358150204026931  0.0000
  Si     Si        0.957812034187259    0.025178354701665    0.642555097001856  0.0000
  Si     Si        0.560645451151693    0.014078390297517    0.608191887172464  0.0000
  Si     Si        0.554151786803927    0.008464279490201    0.094542037205422  0.0000
  Si     Si        0.941299158234110    0.021064818519109    0.132355558811830  0.0000
  Si     Si        0.447188210528040    0.040953383627451    0.847684396201244  0.0000
  Si     Si        0.059034778437661    0.018883645072920    0.898158243098619  0.0000
  Si     Si        0.178295158528810    0.295094899351969    0.268151497367073  0.0000
  Si     Si        0.844915630806439    0.315947430396389    0.713815166404419  0.0000
  Si     Si        0.669018666112508    0.720661492023367    0.706797949160024  0.0000
  Si     Si        0.848375663191771    0.717887687735294    0.711606660569469  0.0000
  Si     Si        0.665069156879814    0.318264234559490    0.708470772200075  0.0000
  Si     Si        0.155706767821766    0.694528074175056    0.279360602093973  0.0000
  Si     Si        0.658157933127050    0.319213655188120    0.014893375605010  0.0000
  Si     Si        0.843435708877943    0.713251965793086    0.018938285273447  0.0000
  Si     Si        0.156813752675733    0.706615328931898    0.972408509892694  0.0000
  Si     Si        0.335953738158511    0.761637288312076    0.963466010619341  0.0000
  Si     Si        0.175556811998332    0.315519527600409    0.958171055206313  0.0000
  Si     Si        0.664017317376260    0.717592343133235    0.013786838436527  0.0000
  Si     Si        0.838146383175941    0.314536585643454    0.020493046374082  0.0000
  O3     O3        0.125290460575586    0.148823606196498    0.336647205481239  0.0000
  O3     O3        0.385900887077478    0.903909528276196    0.373815724051083  0.0000
  O2     O2        0.899850194347494    0.189407903355933    0.631128801189121  0.0000
  O2     O2        0.615932792783157    0.847510114107064    0.622355081493561  0.0000
  O2     O2        0.906432369561068    0.845834884609658    0.629649844452467  0.0000
  O2     O2        0.610821359666460    0.192724406100873    0.623205024586541  0.0000
  O3     O3        0.089833783434460    0.793250904182092    0.359491142073733  0.0000
  O3     O3        0.426880674382240    0.229465250221624    0.360559359983700  0.0000
  O3     O3        0.023051196544844    0.034409342332387    0.532254726114756  0.0000
  O2     O2        0.526171602036972    0.009493491952655    0.463749029726456  0.0000
  O3     O3        0.969669071904051    0.023381655592573    0.279498678724323  0.0000
  O2     O2        0.496347044010480    0.988229351805743    0.216521601923619  0.0000
  O2     O2        0.998081739461761    0.031949390781871    0.783329090785605  0.0000
  O2     O2        0.488066892374282    0.004338966705228    0.708676651587664  0.0000
  O2     O2        0.601799282251505    0.192888878876345    0.101186992237727  0.0000
  O2     O2        0.896755376198039    0.838060448309080    0.105522831568077  0.0000
  O3     O3        0.418500187119665    0.238377951241799    0.851648617285116  0.0000
  O2     O2        0.100040811548356    0.830744988279196    0.891024662801676  0.0000
  O2     O2        0.373135203099057    0.908622834713687    0.865575071610536  0.0000
  O2     O2        0.123312223391230    0.173712628502984    0.883043292740271  0.0000
  O2     O2        0.613223507847238    0.847429065238425    0.099676152836628  0.0000
  O2     O2        0.884707585979074    0.183561228488830    0.111260580990815  0.0000
  O2     O2        0.507466767791705    0.996756353402073    0.961104551169558  0.0000
  O2     O2        0.017118099322366    0.041980192869715    0.038757001145628  0.0000
  O2     O2        0.142696291034778    0.485891817522718    0.295840625727973  0.0000
  O1     O1        0.377635774726970    0.557449345482199    0.287475044289078  0.0000
  O2     O2        0.869348921149388    0.517106696325886    0.682063269603085  0.0000
  O2     O2        0.645349323924012    0.519713811671344    0.676632556477655  0.0000
  O3     O3        0.265007766363915    0.288227233838678    0.322569396924271  0.0000
  O3     O3        0.241226876221120    0.747781436728238    0.326806330232722  0.0000
  O2     O2        0.755257299398572    0.282862236837396    0.674257978654760  0.0000
  O2     O2        0.759756878308519    0.753860208089862    0.669559555426992  0.0000
  O2     O2        0.185538746558927    0.265832113954450    0.111406419985223  0.0000
  O3     O3        0.340909874313006    0.827009592577405    0.111740511780997  0.0000
  O2     O2        0.853770169812422    0.273338397234954    0.868037789181530  0.0000
  O2     O2        0.655734979428488    0.761395406215335    0.859924002802705  0.0000
  O2     O2        0.857969206322940    0.756918403636927    0.865735808346459  0.0000
  O2     O2        0.647537043766027    0.275956548093956    0.861504856991834  0.0000
  O2     O2        0.148454894219086    0.750717236996669    0.126034297438715  0.0000
  O1     O1        0.369149725608961    0.280408165215516    0.107525224038097  0.0000
  O2     O2        0.634684528652715    0.518741415963534    0.042912766693306  0.0000
  O2     O2        0.865587234944931    0.513089536628274    0.050450097726232  0.0000
  O3     O3        0.377148984968780    0.576370896223608    0.946682554898796  0.0000
  O2     O2        0.134103202900609    0.504259429084082    0.944999444773764  0.0000
  O2     O2        0.746966728722709    0.289017209693081    0.054836411727459  0.0000
  O2     O2        0.753324728442118    0.742302571657337    0.055773441171619  0.0000
  O3     O3        0.261234501864197    0.322391684267530    0.896471528008805  0.0000
  O2     O2        0.245499894098171    0.738495449138155    0.924698810799839  0.0000
