data_c00653.vasp
_audit_creation_method             Generated by GULP
_audit_author_name                 Salvador R. G. Balestra
_symmetry_space_group_name_H-M     'P 1             '
_symmetry_Int_Tables_number        1

loop_
_symmetry_equiv_pos_site_id
_symmetry_equiv_pos_as_xyz
_cell_length_a                       17.1610
_cell_length_b                        7.6182
_cell_length_c                       10.2941
_cell_angle_alpha                   89.9134
_cell_angle_beta                    90.4803
_cell_angle_gamma                   89.8481

loop_
_atom_site_label
_atom_site_type_symbol
_atom_site_fract_x
_atom_site_fract_y
_atom_site_fract_z
_atom_site_charge
  Ge     Ge        0.052090000000021    0.000000000000000    0.372269999999958  0.0000
  Ge     Ge        0.354146410027041    0.673053496308927    0.279233620626674  0.0000
  Ge     Ge        0.168334380689611    0.718525341135036    0.971362890863270  0.0000
  Ge     Ge        0.852260119897388    0.331037172645002    0.018154565825427  0.0000
  Si     Si        0.457069152993463    0.985002836423765    0.358942999899562  0.0000
  Si     Si        0.946981720391742    0.011641896046443    0.630989337300817  0.0000
  Si     Si        0.549051339581102    0.003066244442713    0.622940910244112  0.0000
  Si     Si        0.558194793983675    0.010250141622424    0.104932197193653  0.0000
  Si     Si        0.947269451739656    0.012663186916487    0.119326671776831  0.0000
  Si     Si        0.442510187135998    0.995506668438777    0.869018847093739  0.0000
  Si     Si        0.054887786699547    0.004261688870592    0.880190470278563  0.0000
  Si     Si        0.157853862059243    0.304567642557989    0.269102444408522  0.0000
  Si     Si        0.843523688414687    0.317413156969096    0.707142901376157  0.0000
  Si     Si        0.653578746173422    0.697301569461121    0.708471177703505  0.0000
  Si     Si        0.832728650924704    0.720681770734144    0.704266511172395  0.0000
  Si     Si        0.665057469485191    0.294362960178519    0.716056276878130  0.0000
  Si     Si        0.172919455166828    0.714592932305209    0.278216175163501  0.0000
  Si     Si        0.337139720460535    0.264479729155119    0.269507661719667  0.0000
  Si     Si        0.669666386622200    0.301204871339193    0.021059425586557  0.0000
  Si     Si        0.834543181017455    0.734313283661516    0.009020448746299  0.0000
  Si     Si        0.332837937721660    0.282009628324249    0.965696029455267  0.0000
  Si     Si        0.350453946648738    0.679498243198620    0.967122534532746  0.0000
  Si     Si        0.151877328917271    0.313136369311392    0.970948365537621  0.0000
  Si     Si        0.654666091794760    0.697932712821957    0.010817804235514  0.0000
  O3     O3        0.098574251985640    0.199634805571848    0.356662645080662  0.0000
  O3     O3        0.424009691053462    0.789520987957031    0.363118580298296  0.0000
  O2     O2        0.899770716435196    0.195622000009537    0.620442824765496  0.0000
  O2     O2        0.594246367240602    0.816655204043305    0.625464113321430  0.0000
  O2     O2        0.884746425684913    0.852348180338105    0.619795227210720  0.0000
  O2     O2        0.610682394552778    0.159772553846766    0.639479810071894  0.0000
  O3     O3        0.118036832990691    0.830126826791985    0.368054241109187  0.0000
  O2     O2        0.381994857761929    0.113091102764993    0.348358310316830  0.0000
  O3     O3        0.011221778709391    0.997210565057037    0.523437227350097  0.0000
  O2     O2        0.507146215384368    0.028058414699691    0.485789257796361  0.0000
  O3     O3        0.976981406338030    0.973473429222986    0.262518271900434  0.0000
  O2     O2        0.512028645011557    0.018858640276676    0.237138998026297  0.0000
  O2     O2        0.990621716662989    0.998992626735550    0.769145842529372  0.0000
  O2     O2        0.482790819161059    0.011255458652514    0.730893171734572  0.0000
  O2     O2        0.621777581797672    0.164420269399693    0.106818840156944  0.0000
  O2     O2        0.871527781134410    0.894568296867523    0.087673007278542  0.0000
  O2     O2        0.372612944274882    0.137864273918324    0.874048892578917  0.0000
  O3     O3        0.119620078733897    0.855630821010723    0.865924337167938  0.0000
  O2     O2        0.409995331530030    0.798440346394722    0.884742904131163  0.0000
  O2     O2        0.096554306982701    0.194575848705031    0.880362003529777  0.0000
  O2     O2        0.599396793524096    0.820234886787752    0.096315840617166  0.0000
  O3     O3        0.920493311984436    0.213809818008993    0.104994888852962  0.0000
  O2     O2        0.502409289955788    0.044474850620536    0.982693843649229  0.0000
  O2     O2        0.015375393582257    0.963435380515099    0.019014656049604  0.0000
  O2     O2        0.144302224875365    0.512418895586337    0.279276038379405  0.0000
  O3     O3        0.372504443233145    0.452720593437091    0.302416643830668  0.0000
  O2     O2        0.861523978521321    0.521897813773726    0.678436108176870  0.0000
  O2     O2        0.635079712260860    0.492048654679524    0.686706720324243  0.0000
  O2     O2        0.246576711584425    0.258429010977336    0.310674220360274  0.0000
  O3     O3        0.261007560695367    0.721898942741795    0.329947832817078  0.0000
  O2     O2        0.753944932152707    0.275201092370543    0.668696789453761  0.0000
  O2     O2        0.741818006586098    0.739047818510306    0.664783222956553  0.0000
  O2     O2        0.142899296986209    0.246070782244759    0.119644463579771  0.0000
  O3     O3        0.359982991615913    0.728647637599729    0.117325322443461  0.0000
  O3     O3        0.859312340733966    0.274715385510114    0.856881207280581  0.0000
  O2     O2        0.641841886418572    0.745601252755993    0.859490153217203  0.0000
  O2     O2        0.842243479462280    0.768474843036137    0.855294429486196  0.0000
  O2     O2        0.664056698367731    0.251295389517080    0.868926604114005  0.0000
  O3     O3        0.167456503177836    0.786198754369869    0.131113486666715  0.0000
  O2     O2        0.343093197799778    0.226338995494205    0.115671475178310  0.0000
  O2     O2        0.633409899732748    0.496077362366512    0.039975731614853  0.0000
  O3     O3        0.874336068632969    0.550172720104985    0.042606404602346  0.0000
  O2     O2        0.371140422379052    0.473503709809693    0.944725372098980  0.0000
  O3     O3        0.126807410620244    0.512741188955348    0.956845258533804  0.0000
  O3     O3        0.758081761242818    0.295288316809619    0.068402404074282  0.0000
  O2     O2        0.744279488931271    0.728826721533805    0.049105291125221  0.0000
  O2     O2        0.241729266495569    0.290952421992900    0.928250524795391  0.0000
  O3     O3        0.263246437417760    0.713972609654670    0.919321973832984  0.0000
