data_c00672.vasp
_audit_creation_method             Generated by GULP
_audit_author_name                 Salvador R. G. Balestra
_symmetry_space_group_name_H-M     'P 1             '
_symmetry_Int_Tables_number        1

loop_
_symmetry_equiv_pos_site_id
_symmetry_equiv_pos_as_xyz
_cell_length_a                       17.2145
_cell_length_b                        7.6179
_cell_length_c                       10.2674
_cell_angle_alpha                   89.5510
_cell_angle_beta                    90.8231
_cell_angle_gamma                   90.0975

loop_
_atom_site_label
_atom_site_type_symbol
_atom_site_fract_x
_atom_site_fract_y
_atom_site_fract_z
_atom_site_charge
  Ge     Ge        0.052090000000021    0.000000000000000    0.372269999999958  0.0000
  Ge     Ge        0.829809085686687    0.274564159042220    0.711564758837227  0.0000
  Ge     Ge        0.845171818616170    0.695313960934139    0.704244546135224  0.0000
  Ge     Ge        0.342891899612822    0.343290534599726    0.948684859601049  0.0000
  Si     Si        0.451280247656006    0.014631892745381    0.349588179195609  0.0000
  Si     Si        0.951661244908500    0.998995635492928    0.629027151539688  0.0000
  Si     Si        0.543701436120540    0.011992271133642    0.617342058321116  0.0000
  Si     Si        0.553470717390034    0.015985309198893    0.098264475524947  0.0000
  Si     Si        0.935726480804172    0.006217615086702    0.130383783638174  0.0000
  Si     Si        0.437755960686001    0.028671627121009    0.857987115468576  0.0000
  Si     Si        0.046149238289753    0.022119228201002    0.892467770836098  0.0000
  Si     Si        0.170293940190408    0.292747117419713    0.263351043664713  0.0000
  Si     Si        0.336045050582591    0.726086773133253    0.267158345031731  0.0000
  Si     Si        0.662420976266202    0.723621992752264    0.702643635507427  0.0000
  Si     Si        0.648306780693914    0.318584752947879    0.709142768672512  0.0000
  Si     Si        0.157125236753076    0.697292683065615    0.275982480721531  0.0000
  Si     Si        0.348106428457085    0.321492859336115    0.259400085752844  0.0000
  Si     Si        0.650163992835889    0.330164919555086    0.014900345456693  0.0000
  Si     Si        0.842804991889040    0.698021738306019    0.012858476579324  0.0000
  Si     Si        0.147466770717696    0.711842184028384    0.974860614850725  0.0000
  Si     Si        0.327330756025038    0.747266996930475    0.963215591705290  0.0000
  Si     Si        0.161088931329064    0.312914104647125    0.959460951122360  0.0000
  Si     Si        0.664367578558638    0.725975967670168    0.008751027362637  0.0000
  Si     Si        0.828375351947004    0.293794321371700    0.020428574374501  0.0000
  O3     O3        0.118964781726948    0.163291581982243    0.346116496818364  0.0000
  O2     O2        0.388587777237352    0.856661849381818    0.352702197492700  0.0000
  O3     O3        0.879570821690918    0.132078382366662    0.615884042619016  0.0000
  O2     O2        0.607146696870009    0.857431281238572    0.624207372334540  0.0000
  O3     O3        0.913895880818366    0.807528287317051    0.616174159161252  0.0000
  O2     O2        0.583838808900773    0.201452386638014    0.636106000481138  0.0000
  O3     O3        0.099947259785365    0.801256238527035    0.366736861981712  0.0000
  O2     O2        0.407603613763156    0.201412790518626    0.342503297908618  0.0000
  O3     O3        0.018936043910927    0.029337129500365    0.527880225321290  0.0000
  O2     O2        0.503260789902344    0.006932343091153    0.477910538692926  0.0000
  O3     O3        0.970615293910105    0.007843381689671    0.274125095253065  0.0000
  O2     O2        0.508147053972805    0.988696211982370    0.229952880481203  0.0000
  O2     O2        0.985768689394768    0.032307000496909    0.774481782251963  0.0000
  O2     O2        0.477659308159325    0.980279686264121    0.723703942929039  0.0000
  O2     O2        0.591984952741903    0.209620487821289    0.097382301251157  0.0000
  O2     O2        0.897949352072269    0.814773856825307    0.105590113914764  0.0000
  O3     O3        0.406663890269820    0.226086354460925    0.855841081162112  0.0000
  O2     O2        0.090644463034722    0.835341971056833    0.889739213445444  0.0000
  O2     O2        0.362733802432617    0.904359928803420    0.878501769999119  0.0000
  O2     O2        0.106853135515896    0.182050162234543    0.877138219586730  0.0000
  O2     O2        0.619986652251610    0.868658500963036    0.092503854113884  0.0000
  O2     O2        0.872843949663516    0.162748164167967    0.119270959943470  0.0000
  O2     O2        0.497299598117139    0.990416289537970    0.975399707136790  0.0000
  O2     O2        0.003948602359472    0.045535122013558    0.029209299028307  0.0000
  O2     O2        0.141828371117026    0.490370092462772    0.290684282731669  0.0000
  O2     O2        0.365709088754639    0.526585120016286    0.286308946032354  0.0000
  O1     O1        0.865050327143020    0.480210414382038    0.683855838025924  0.0000
  O2     O2        0.633162059765773    0.524288956784247    0.679066580111031  0.0000
  O2     O2        0.260790545302785    0.275127775737454    0.303736466028972  0.0000
  O2     O2        0.246832056017842    0.741320899268874    0.311524217858310  0.0000
  O3     O3        0.733074743495242    0.267019492698492    0.663635683474407  0.0000
  O3     O3        0.750201316015693    0.741997089238295    0.656264053455754  0.0000
  O2     O2        0.162887319488550    0.250665761398079    0.110127214691808  0.0000
  O2     O2        0.341795879108910    0.782279045875863    0.116341843484804  0.0000
  O3     O3        0.836120550453358    0.222804940379838    0.875538652390440  0.0000
  O2     O2        0.659260498962231    0.770334805805455    0.855606738086768  0.0000
  O3     O3        0.855031199679590    0.757129621392947    0.865654027402279  0.0000
  O2     O2        0.641713963207916    0.280762610444521    0.863474296281888  0.0000
  O2     O2        0.138255303721239    0.758522615625875    0.127037303095034  0.0000
  O3     O3        0.358285094787465    0.279735977665085    0.108453901758176  0.0000
  O2     O2        0.627726783306906    0.533449225825480    0.036430972807661  0.0000
  O2     O2        0.863684507648451    0.491262525493804    0.028919911673868  0.0000
  O3     O3        0.364173080557952    0.562589248177346    0.926521442563877  0.0000
  O2     O2        0.125533545041938    0.509501116976417    0.947984501024220  0.0000
  O2     O2        0.738425283329689    0.297177867162766    0.061752818605420  0.0000
  O2     O2        0.753917174857619    0.728341455669485    0.054312442888970  0.0000
  O3     O3        0.247032448167897    0.308960823738139    0.904399406051819  0.0000
  O2     O2        0.235569283421338    0.744013283096354    0.931977831323799  0.0000
