data_c00660.vasp
_audit_creation_method             Generated by GULP
_audit_author_name                 Salvador R. G. Balestra
_symmetry_space_group_name_H-M     'P 1             '
_symmetry_Int_Tables_number        1

loop_
_symmetry_equiv_pos_site_id
_symmetry_equiv_pos_as_xyz
_cell_length_a                       17.1967
_cell_length_b                        7.6628
_cell_length_c                       10.2676
_cell_angle_alpha                   90.8080
_cell_angle_beta                    90.6519
_cell_angle_gamma                   89.6460

loop_
_atom_site_label
_atom_site_type_symbol
_atom_site_fract_x
_atom_site_fract_y
_atom_site_fract_z
_atom_site_charge
  Ge     Ge        0.052090000000021    0.000000000000000    0.372269999999958  0.0000
  Ge     Ge        0.831368499898476    0.256797819657185    0.710534373048511  0.0000
  Ge     Ge        0.661399755091176    0.712879017528713    0.703582841083857  0.0000
  Ge     Ge        0.848239931167647    0.675374362077211    0.705422973045301  0.0000
  Si     Si        0.450840328912605    0.000158370592901    0.356904674155242  0.0000
  Si     Si        0.953956814249960    0.975078071168195    0.630679184155182  0.0000
  Si     Si        0.542821001508770    0.000539738419445    0.622176006843141  0.0000
  Si     Si        0.557031990996291    0.007276767218705    0.114425136941434  0.0000
  Si     Si        0.935392248133851    0.989444089980512    0.132081214319509  0.0000
  Si     Si        0.440628906708589    0.985648401553283    0.875700309360683  0.0000
  Si     Si        0.047828698715375    0.994547016529487    0.894025308608005  0.0000
  Si     Si        0.163863142454750    0.294986847907613    0.268794781671947  0.0000
  Si     Si        0.341808549559829    0.699721167691436    0.261214099474885  0.0000
  Si     Si        0.650339705902932    0.300466828892014    0.708670573182293  0.0000
  Si     Si        0.163140709205885    0.699318831657529    0.269290707475726  0.0000
  Si     Si        0.342474616238609    0.298705033010078    0.261827262583008  0.0000
  Si     Si        0.650792007037898    0.317952943691922    0.013816460278467  0.0000
  Si     Si        0.844164415798480    0.679592229637306    0.012372094036419  0.0000
  Si     Si        0.337218934363512    0.294021207553828    0.956667879537824  0.0000
  Si     Si        0.154600392137479    0.691429134175195    0.966572607865462  0.0000
  Si     Si        0.334034054277562    0.690888350152704    0.956224876990599  0.0000
  Si     Si        0.157711525053929    0.291031978729028    0.965998013056335  0.0000
  Si     Si        0.660914677534272    0.712624633502503    0.008726878451010  0.0000
  Si     Si        0.831540279615605    0.282776208631836    0.020803896374116  0.0000
  O3     O3        0.108511489914856    0.182441599797010    0.355228307557635  0.0000
  O2     O2        0.398987582118092    0.827431596838695    0.339410234770605  0.0000
  O3     O3        0.884047834740393    0.114085678604577    0.617028127674656  0.0000
  O3     O3        0.603746318300202    0.843579299802449    0.607361096483510  0.0000
  O3     O3        0.916184138463564    0.785358167587703    0.615817994082174  0.0000
  O2     O2        0.587257538348540    0.184962825192832    0.630529775676349  0.0000
  O3     O3        0.108457243002418    0.815113046455611    0.357616799806068  0.0000
  O2     O2        0.399182443305651    0.173879374429129    0.341780276106799  0.0000
  O3     O3        0.021573617293876    0.006644721758493    0.531070518194349  0.0000
  O2     O2        0.483822746036165    0.002098556754258    0.501865329265749  0.0000
  O3     O3        0.969596049994872    0.995459927880060    0.276343514628631  0.0000
  O2     O2        0.522180114992035    0.999337285206237    0.257671286226797  0.0000
  O2     O2        0.986221327000495    0.000906290350193    0.778292090501318  0.0000
  O2     O2        0.494454724487436    0.972306723818043    0.752286546695170  0.0000
  O2     O2        0.594990998303583    0.197169616157794    0.097179807085207  0.0000
  O2     O2        0.891007025031083    0.806422369785246    0.110573961014380  0.0000
  O2     O2        0.390014462676741    0.163945268410679    0.871799463205739  0.0000
  O2     O2        0.098477693829078    0.816045632396379    0.883167332785921  0.0000
  O2     O2        0.383029595135231    0.820423733516291    0.869210305272040  0.0000
  O2     O2        0.104050897794798    0.161651414792462    0.881424689789462  0.0000
  O2     O2        0.622278917112781    0.855993745174236    0.103886376918124  0.0000
  O2     O2        0.875752073903149    0.150875044522741    0.116634167282157  0.0000
  O2     O2        0.490079864127215    0.975692696456713    0.008031398790926  0.0000
  O2     O2        0.006211284296078    0.005829139197295    0.032656397692403  0.0000
  O2     O2        0.144389861337580    0.497696147848781    0.294006796459339  0.0000
  O2     O2        0.363876013225521    0.499720705166238    0.293465491757248  0.0000
  O1     O1        0.847700697238427    0.463053385955388    0.656488126808612  0.0000
  O3     O3        0.652187665252456    0.495284318477687    0.657143907742766  0.0000
  O2     O2        0.254321283382899    0.259630246502990    0.303396368217052  0.0000
  O2     O2        0.253316409120591    0.738660732570138    0.303139407732360  0.0000
  O3     O3        0.733793680725311    0.209349498048458    0.693466757840140  0.0000
  O1     O1        0.757058576420835    0.765222335273884    0.687509591177426  0.0000
  O2     O2        0.148979967228948    0.244537558035154    0.117494345472308  0.0000
  O2     O2        0.349806018156872    0.733115786959450    0.107939099171158  0.0000
  O3     O3        0.856318698163907    0.244672811218235    0.874069787486393  0.0000
  O3     O3        0.631138921482231    0.740892820510716    0.862986843830338  0.0000
  O3     O3        0.876307822745853    0.693849541464967    0.868462219491286  0.0000
  O2     O2        0.628520459598923    0.302289518709643    0.861878906133697  0.0000
  O2     O2        0.145951706343407    0.743958585199920    0.118251213088099  0.0000
  O2     O2        0.352560554514573    0.258140799106247    0.108812313113285  0.0000
  O2     O2        0.639352690239845    0.519197462552602    0.059219629753774  0.0000
  O2     O2        0.853893259106775    0.481148556042663    0.062049935891330  0.0000
  O2     O2        0.359714545308526    0.492310324396698    0.923068557127769  0.0000
  O2     O2        0.130487873509427    0.490272895622808    0.941374786372674  0.0000
  O2     O2        0.739341138629876    0.256247673118037    0.035620894094489  0.0000
  O2     O2        0.753729598710760    0.734617708214344    0.008369058539065  0.0000
  O2     O2        0.246643563826519    0.263676515937458    0.922647303593148  0.0000
  O2     O2        0.243162853809620    0.717970401424912    0.922807620592974  0.0000
