data_c00651.vasp
_audit_creation_method             Generated by GULP
_audit_author_name                 Salvador R. G. Balestra
_symmetry_space_group_name_H-M     'P 1             '
_symmetry_Int_Tables_number        1

loop_
_symmetry_equiv_pos_site_id
_symmetry_equiv_pos_as_xyz
_cell_length_a                       17.1445
_cell_length_b                        7.6275
_cell_length_c                       10.2844
_cell_angle_alpha                   89.7204
_cell_angle_beta                    89.9238
_cell_angle_gamma                   90.6729

loop_
_atom_site_label
_atom_site_type_symbol
_atom_site_fract_x
_atom_site_fract_y
_atom_site_fract_z
_atom_site_charge
  Ge     Ge        0.052090000000021    0.000000000000000    0.372269999999958  0.0000
  Ge     Ge        0.335461209176752    0.737848165762097    0.275940815383415  0.0000
  Ge     Ge        0.148431583731945    0.682221054931469    0.968655706819469  0.0000
  Ge     Ge        0.170348922174221    0.270609862652203    0.972961316038176  0.0000
  Si     Si        0.455212591814359    0.025398838337866    0.360671804765379  0.0000
  Si     Si        0.947391049460966    0.020685580983622    0.632715180073170  0.0000
  Si     Si        0.550489503439748    0.022441291241715    0.622062910836709  0.0000
  Si     Si        0.557754111366175    0.010266321659983    0.105897936942852  0.0000
  Si     Si        0.946381318868774    0.020261512701373    0.119326737411547  0.0000
  Si     Si        0.444388872352860    0.023975666119733    0.868762172843932  0.0000
  Si     Si        0.053955927995241    0.994702884980010    0.879227843461761  0.0000
  Si     Si        0.174447874026339    0.283665351959534    0.277085228009128  0.0000
  Si     Si        0.835911794713988    0.312556442640337    0.710483148799236  0.0000
  Si     Si        0.662038367661426    0.728395775278185    0.717397762491814  0.0000
  Si     Si        0.841648689623025    0.714649651529859    0.710659369253988  0.0000
  Si     Si        0.656080846120364    0.325748016519953    0.715831026968797  0.0000
  Si     Si        0.154215535795952    0.693043045478800    0.274031367771601  0.0000
  Si     Si        0.353282885170251    0.331731351357632    0.275254914225802  0.0000
  Si     Si        0.657076216314448    0.324158034338729    0.019206571202847  0.0000
  Si     Si        0.847126744386460    0.709298889214045    0.014537580335818  0.0000
  Si     Si        0.352084226155339    0.337026464312369    0.970652518500305  0.0000
  Si     Si        0.331579159409551    0.734331908286035    0.965165345820849  0.0000
  Si     Si        0.667360442146274    0.723226705031513    0.021177166641586  0.0000
  Si     Si        0.837205264750384    0.309616802969458    0.014342978261001  0.0000
  O3     O3        0.123873845614101    0.160897911257550    0.370179381942624  0.0000
  O3     O3        0.388829541917460    0.878081409802835    0.371065504583305  0.0000
  O2     O2        0.887967701053944    0.183991420925833    0.624201034462285  0.0000
  O2     O2        0.607893435114041    0.857971602093782    0.636527928429431  0.0000
  O2     O2        0.897213445276599    0.839815155256402    0.624895851196137  0.0000
  O2     O2        0.599131078254410    0.203263079711972    0.632921422255193  0.0000
  O3     O3        0.091125486135452    0.793449026811549    0.359987699512380  0.0000
  O2     O2        0.413353888525533    0.213298101450864    0.355279085660091  0.0000
  O3     O3        0.010975446145612    0.024707916290437    0.523056213406281  0.0000
  O2     O2        0.513841124078808    0.017282340024136    0.480198893970715  0.0000
  O3     O3        0.977519101811849    0.031941847303205    0.263461482435609  0.0000
  O2     O2        0.503765316897072    0.990041456319975    0.230244224304369  0.0000
  O2     O2        0.992187634080964    0.035346568648367    0.769068071513482  0.0000
  O2     O2        0.481219854014031    0.013394547277727    0.726358853335695  0.0000
  O2     O2        0.600967849705535    0.199761989800066    0.104966123001778  0.0000
  O2     O2        0.905593153063874    0.830561093317914    0.096039368331806  0.0000
  O2     O2        0.412433581328631    0.220077008378787    0.889569048397213  0.0000
  O3     O3        0.081124150804104    0.795310089861012    0.876921138747834  0.0000
  O2     O2        0.375829068475156    0.878451049878152    0.876231062610672  0.0000
  O3     O3        0.130933406126487    0.115650304779489    0.871151086360093  0.0000
  O2     O2        0.621420876170686    0.856683658421626    0.111684596594478  0.0000
  O2     O2        0.884484084955680    0.174877983385361    0.101140209403698  0.0000
  O2     O2        0.508250778289532    0.979214215786802    0.976514560664047  0.0000
  O2     O2        0.017723703448902    0.048206746795536    0.019617046858631  0.0000
  O2     O2        0.141961578493568    0.482134943779581    0.273502958904758  0.0000
  O3     O3        0.374084037443466    0.531960338631888    0.298170873526347  0.0000
  O2     O2        0.861199387122823    0.512971796931169    0.679357417505339  0.0000
  O2     O2        0.636317562102434    0.528409413354680    0.687723630634880  0.0000
  O2     O2        0.264741432328494    0.289844580998008    0.322618721303038  0.0000
  O3     O3        0.239724913075813    0.738993517255808    0.327543809147783  0.0000
  O2     O2        0.745016927327931    0.285953236587150    0.675589319313006  0.0000
  O2     O2        0.752090545246064    0.755761046233846    0.675790437707211  0.0000
  O3     O3        0.168731585559289    0.203743155840011    0.133485361241040  0.0000
  O3     O3        0.335335465374453    0.796248069745010    0.113964958678535  0.0000
  O2     O2        0.848143882567853    0.268187761340829    0.862286716544389  0.0000
  O2     O2        0.654065136938906    0.769450150390313    0.870012954847229  0.0000
  O2     O2        0.857649075573436    0.753442624498967    0.862306381228609  0.0000
  O2     O2        0.642951211306924    0.282118031996834    0.867728946111234  0.0000
  O3     O3        0.144016547648270    0.758777653524046    0.126615869952286  0.0000
  O2     O2        0.358653483305969    0.284636976962989    0.122486850512057  0.0000
  O2     O2        0.637141093720877    0.525572400529722    0.050203653476083  0.0000
  O2     O2        0.867966504356733    0.506891978413443    0.042887671803544  0.0000
  O2     O2        0.372607300085630    0.543600089871367    0.952584912584815  0.0000
  O1     O1        0.124149962937323    0.466996355291570    0.955204444100751  0.0000
  O2     O2        0.746860645394471    0.289060331335298    0.054054313063051  0.0000
  O2     O2        0.758315433414837    0.743273866764787    0.056460531859637  0.0000
  O3     O3        0.265553622926485    0.300922935870573    0.922070547134813  0.0000
  O3     O3        0.243466756134931    0.718266875539114    0.916891593116143  0.0000
