data_c00656.vasp
_audit_creation_method             Generated by GULP
_audit_author_name                 Salvador R. G. Balestra
_symmetry_space_group_name_H-M     'P 1             '
_symmetry_Int_Tables_number        1

loop_
_symmetry_equiv_pos_site_id
_symmetry_equiv_pos_as_xyz
_cell_length_a                       17.1978
_cell_length_b                        7.6291
_cell_length_c                       10.2378
_cell_angle_alpha                   89.9736
_cell_angle_beta                    90.5894
_cell_angle_gamma                   89.4414

loop_
_atom_site_label
_atom_site_type_symbol
_atom_site_fract_x
_atom_site_fract_y
_atom_site_fract_z
_atom_site_charge
  Ge     Ge        0.052090000000021    0.000000000000000    0.372269999999958  0.0000
  Ge     Ge        0.354363297211981    0.675594379550675    0.290120589293390  0.0000
  Ge     Ge        0.347907582217690    0.675959870964379    0.971498537912346  0.0000
  Ge     Ge        0.846708984809971    0.326736967427291    0.042098734941806  0.0000
  Si     Si        0.454997587597522    0.986442796150581    0.371478676401592  0.0000
  Si     Si        0.948076788252942    0.008646810214177    0.631541035260087  0.0000
  Si     Si        0.551442274139948    0.009957928048183    0.631207531935341  0.0000
  Si     Si        0.553125229553640    0.009449784143112    0.113557666805445  0.0000
  Si     Si        0.944900429755073    0.010407122072897    0.117806692077924  0.0000
  Si     Si        0.440705521234528    0.989600028338768    0.870348917561273  0.0000
  Si     Si        0.053975647232375    0.008050422880758    0.878175131790815  0.0000
  Si     Si        0.156185192505531    0.308046581673628    0.287577878326716  0.0000
  Si     Si        0.844174786287215    0.313905845438794    0.729436027724709  0.0000
  Si     Si        0.655941174852098    0.702267020007984    0.722835645502283  0.0000
  Si     Si        0.834405718834908    0.718463958850028    0.727288503649998  0.0000
  Si     Si        0.665925086601289    0.298691649133663    0.727452297264595  0.0000
  Si     Si        0.172259329483876    0.711304359832478    0.292550702538617  0.0000
  Si     Si        0.336371836405333    0.266363062311764    0.282885591375039  0.0000
  Si     Si        0.664401987089877    0.301887688597954    0.034017058864761  0.0000
  Si     Si        0.831870075518179    0.728083807877344    0.033682347051997  0.0000
  Si     Si        0.330905988808083    0.271190264717202    0.976871953036518  0.0000
  Si     Si        0.165593108982395    0.713275183522594    0.985778384771488  0.0000
  Si     Si        0.150546356514534    0.313567056450684    0.986217563533511  0.0000
  Si     Si        0.652681490345953    0.698253500991900    0.027120608820357  0.0000
  O3     O3        0.098993547154834    0.199176169077399    0.376281819110049  0.0000
  O3     O3        0.421421140548372    0.792824822967437    0.380574978933603  0.0000
  O2     O2        0.902500366289803    0.193242183323095    0.646213881298751  0.0000
  O2     O2        0.596801818153824    0.823738862936326    0.640301597630065  0.0000
  O2     O2        0.888687221527045    0.848144915237624    0.647822852177075  0.0000
  O2     O2        0.612208810636925    0.167302316187360    0.646665405739080  0.0000
  O3     O3        0.121626718495288    0.836432962283706    0.382675001119616  0.0000
  O2     O2        0.380594426370840    0.118299760202607    0.367448307656943  0.0000
  O3     O3        0.981842171886580    0.995712836971575    0.488406347480818  0.0000
  O2     O2        0.512006886805083    0.028339782530261    0.490727945181331  0.0000
  O3     O3        0.005449753452951    0.956872792364971    0.226472449142585  0.0000
  O2     O2        0.503529833460092    0.019432274365161    0.242066509606116  0.0000
  O2     O2        0.021402017455156    0.994937791963956    0.731057845479242  0.0000
  O2     O2        0.482704756424548    0.026067995221537    0.734931510249048  0.0000
  O2     O2        0.614242964069307    0.166982001982651    0.116503137419109  0.0000
  O2     O2        0.870634876406987    0.881654625283464    0.116927160500845  0.0000
  O2     O2        0.366387513743337    0.119628654694954    0.885953811930060  0.0000
  O2     O2        0.114569946920034    0.850051120831602    0.902443209768463  0.0000
  O3     O3        0.409706010437878    0.793510233895733    0.873619766397060  0.0000
  O2     O2        0.095090850820872    0.196550794623352    0.895367538867931  0.0000
  O2     O2        0.596920672764508    0.821638222156482    0.111346348526660  0.0000
  O3     O3        0.910647014288386    0.204943619049566    0.136139509342726  0.0000
  O2     O2        0.499485707097986    0.033533643759041    0.987237656242569  0.0000
  O2     O2        0.982766394386786    0.991942374908242    0.975387653577306  0.0000
  O2     O2        0.140848904491178    0.513668726876877    0.307616889019882  0.0000
  O3     O3        0.372136390058122    0.454469926102915    0.311531208891553  0.0000
  O2     O2        0.862362281873903    0.518541550994067    0.702795177972592  0.0000
  O2     O2        0.637557109619322    0.497833154468645    0.698233951482438  0.0000
  O2     O2        0.245803439516823    0.263043326535827    0.322489971115348  0.0000
  O3     O3        0.260780479608427    0.720782261765164    0.339508434945867  0.0000
  O2     O2        0.755381923188176    0.274947454005874    0.684762406421402  0.0000
  O2     O2        0.744499727125804    0.742088357028494    0.681688962097426  0.0000
  O2     O2        0.138276092993657    0.255016961310378    0.136419437706975  0.0000
  O1     O1        0.365401810210507    0.733335851705356    0.129945843918290  0.0000
  O3     O3        0.856489784395725    0.269319336129488    0.880236759868023  0.0000
  O2     O2        0.642996253581154    0.748210137544772    0.874778588641247  0.0000
  O2     O2        0.840157473664132    0.764102127581052    0.879638610653158  0.0000
  O2     O2        0.661397468282263    0.253850026190456    0.880602252564717  0.0000
  O2     O2        0.168323166258603    0.766156796379568    0.138964253480428  0.0000
  O2     O2        0.343246559304577    0.223021839327282    0.129092007690672  0.0000
  O2     O2        0.628758639459185    0.497729129648479    0.052606057004978  0.0000
  O3     O3        0.870526024304455    0.542712948679113    0.067672969630715  0.0000
  O3     O3        0.369094352016274    0.456373679657863    0.947778786665681  0.0000
  O2     O2        0.128891121452297    0.518831043715708    0.968977380093865  0.0000
  O3     O3        0.751629498335995    0.293332271966314    0.086390779991604  0.0000
  O2     O2        0.741395031213319    0.724398394560079    0.071781075710014  0.0000
  O2     O2        0.239235889197544    0.283378676818271    0.944475468034043  0.0000
  O3     O3        0.251676556287974    0.714744243657253    0.930651765580089  0.0000
