data_c00680.vasp
_audit_creation_method             Generated by GULP
_audit_author_name                 Salvador R. G. Balestra
_symmetry_space_group_name_H-M     'P 1             '
_symmetry_Int_Tables_number        1

loop_
_symmetry_equiv_pos_site_id
_symmetry_equiv_pos_as_xyz
_cell_length_a                       17.1973
_cell_length_b                        7.6799
_cell_length_c                       10.2599
_cell_angle_alpha                   88.0111
_cell_angle_beta                    89.9988
_cell_angle_gamma                   90.3500

loop_
_atom_site_label
_atom_site_type_symbol
_atom_site_fract_x
_atom_site_fract_y
_atom_site_fract_z
_atom_site_charge
  Ge     Ge        0.052090000000021    0.000000000000000    0.372269999999958  0.0000
  Ge     Ge        0.849859351386544    0.324617350559254    0.703014599639702  0.0000
  Ge     Ge        0.660623784381025    0.304288719739738    0.699302087439373  0.0000
  Ge     Ge        0.655060190150383    0.678065770490639    0.026872592507623  0.0000
  Si     Si        0.451532511349349    0.004068571626898    0.362684111738252  0.0000
  Si     Si        0.954903804230319    0.022555790430045    0.635934067989012  0.0000
  Si     Si        0.547549888419781    0.014386555295757    0.621624827282246  0.0000
  Si     Si        0.558862050331995    0.987423774067229    0.120569354677397  0.0000
  Si     Si        0.940518820153276    0.998464111573169    0.127557810548898  0.0000
  Si     Si        0.445800926635662    0.022231604742676    0.878285707939874  0.0000
  Si     Si        0.056259499974662    0.019812307197286    0.892373045190423  0.0000
  Si     Si        0.163329549633078    0.306232883525638    0.272679614512317  0.0000
  Si     Si        0.345578651348295    0.704478763450028    0.266437084567789  0.0000
  Si     Si        0.656035721119228    0.712338304252948    0.713189890107536  0.0000
  Si     Si        0.836149425969571    0.730895586160786    0.717220394780793  0.0000
  Si     Si        0.166523029309456    0.709789599069639    0.271256077928699  0.0000
  Si     Si        0.342570337394813    0.303639654109866    0.268725531171976  0.0000
  Si     Si        0.661747812781227    0.279322400173094    0.003725507725097  0.0000
  Si     Si        0.838315044677035    0.697049997336423    0.025629167682524  0.0000
  Si     Si        0.340499128495040    0.317345513456109    0.963629363333424  0.0000
  Si     Si        0.163025223594048    0.718449912721571    0.968026785316114  0.0000
  Si     Si        0.342929671570456    0.713002937003337    0.961322197915829  0.0000
  Si     Si        0.160488484056734    0.320103712374315    0.969420372246681  0.0000
  Si     Si        0.846366387745714    0.304493183561836    0.005820480622666  0.0000
  O3     O3        0.106304079165339    0.189100622578137    0.359082469927637  0.0000
  O2     O2        0.402563121921318    0.827274357422064    0.345293964692168  0.0000
  O3     O3        0.913584186129494    0.207194217535946    0.610375173787811  0.0000
  O2     O2        0.601454064986445    0.844192651994573    0.631686833087735  0.0000
  O2     O2        0.886335946050055    0.877750256148986    0.641597039547907  0.0000
  O3     O3        0.602577236217020    0.180916529394286    0.600634901252351  0.0000
  O3     O3        0.112123878303790    0.823519952628254    0.357323732011475  0.0000
  O2     O2        0.396501741282719    0.172566192912437    0.351614220545120  0.0000
  O3     O3        0.017755976489657    0.982649178151879    0.529226750355351  0.0000
  O2     O2        0.486985785774789    0.994264441708534    0.505660021304291  0.0000
  O3     O3        0.971663061794881    0.998991770248097    0.273104767525213  0.0000
  O2     O2        0.521627419959712    0.022187120649641    0.259948406553974  0.0000
  O2     O2        0.996072928837453    0.020114412195750    0.776405280483372  0.0000
  O2     O2        0.499085791384719    0.036168421347226    0.753096245304240  0.0000
  O2     O2        0.631379121505555    0.119610976119611    0.095902107857193  0.0000
  O2     O2        0.893992313989490    0.819271791858830    0.107799615354371  0.0000
  O2     O2        0.389553953222058    0.189612653883134    0.876280715517477  0.0000
  O2     O2        0.111511944602167    0.851237857768198    0.881609156876047  0.0000
  O2     O2        0.394739953074113    0.845218229359089    0.873949983452551  0.0000
  O2     O2        0.107832354714689    0.196609304508400    0.882371682747457  0.0000
  O3     O3        0.591632569594474    0.793899464373912    0.119303376851859  0.0000
  O2     O2        0.883884814840632    0.163278605404371    0.105352307300173  0.0000
  O2     O2        0.495542991257169    0.022455046226960    0.009163543319120  0.0000
  O2     O2        0.013760975037529    0.011469914736498    0.031307490553415  0.0000
  O2     O2        0.145571652729054    0.507427756923410    0.297476420715123  0.0000
  O2     O2        0.365502542067186    0.502450434610342    0.299492387806077  0.0000
  O3     O3        0.855438309646344    0.544309818835687    0.661986549502542  0.0000
  O3     O3        0.646991003544966    0.521996843439571    0.658882324884249  0.0000
  O2     O2        0.253169233854555    0.266089025435301    0.307723810869230  0.0000
  O2     O2        0.256912824045891    0.743180307038064    0.305831415605750  0.0000
  O1     O1        0.756448120058571    0.255442845293028    0.679157611731552  0.0000
  O2     O2        0.745546776976800    0.775345089375023    0.696107900771429  0.0000
  O2     O2        0.148610961509431    0.265387861619719    0.121151514731736  0.0000
  O2     O2        0.357798339464175    0.747615922007582    0.113192791288081  0.0000
  O3     O3        0.881318949347289    0.290847467306046    0.863131173609643  0.0000
  O3     O3        0.633917468228282    0.717234049684156    0.864800351403461  0.0000
  O2     O2        0.853201992763348    0.729852149501239    0.871839882942918  0.0000
  O3     O3        0.629494820997194    0.265059196674240    0.858496376754728  0.0000
  O2     O2        0.152451739498194    0.762035641764723    0.119354961328370  0.0000
  O2     O2        0.354422424588841    0.271081876445400    0.115970763410615  0.0000
  O3     O3        0.638853249127653    0.460434946323288    0.065104101110103  0.0000
  O2     O2        0.859606523148392    0.496232002076078    0.063189601305240  0.0000
  O2     O2        0.367367012007678    0.516002946416687    0.930551670771295  0.0000
  O2     O2        0.135609593029688    0.520748885190214    0.942951277530763  0.0000
  O2     O2        0.754744488617108    0.271621837086269    0.988442654421346  0.0000
  O3     O3        0.749858299207520    0.734689526449284    0.060571868203540  0.0000
  O2     O2        0.249934214352592    0.295126417849181    0.929442389701752  0.0000
  O2     O2        0.252737064200928    0.742551893932099    0.926904751926013  0.0000
