data_c00664.vasp
_audit_creation_method             Generated by GULP
_audit_author_name                 Salvador R. G. Balestra
_symmetry_space_group_name_H-M     'P 1             '
_symmetry_Int_Tables_number        1

loop_
_symmetry_equiv_pos_site_id
_symmetry_equiv_pos_as_xyz
_cell_length_a                       17.3187
_cell_length_b                        7.6615
_cell_length_c                       10.1557
_cell_angle_alpha                   89.8794
_cell_angle_beta                    90.4138
_cell_angle_gamma                   91.0940

loop_
_atom_site_label
_atom_site_type_symbol
_atom_site_fract_x
_atom_site_fract_y
_atom_site_fract_z
_atom_site_charge
  Ge     Ge        0.052090000000021    0.000000000000000    0.372269999999958  0.0000
  Ge     Ge        0.845208244809698    0.322584903548369    0.731229036373172  0.0000
  Ge     Ge        0.653671671739974    0.701532552695874    0.726237219574423  0.0000
  Ge     Ge        0.342285692485268    0.335601202856345    0.973796649973381  0.0000
  Si     Si        0.450041571714573    0.023787726295431    0.386718291693808  0.0000
  Si     Si        0.951282138693233    0.022537927874764    0.633873261477538  0.0000
  Si     Si        0.546869808205401    0.998921454489043    0.646556197625974  0.0000
  Si     Si        0.555187719870467    0.003905237954450    0.140570568938959  0.0000
  Si     Si        0.940804497976371    0.021002553677999    0.116619876226679  0.0000
  Si     Si        0.442597144104322    0.029649288363961    0.897413155059722  0.0000
  Si     Si        0.053272197601802    0.007303336526115    0.882090397075276  0.0000
  Si     Si        0.168256624012759    0.299226384771262    0.295271862051811  0.0000
  Si     Si        0.339201170207891    0.724167187571890    0.292693859607374  0.0000
  Si     Si        0.834497443184610    0.728789260016772    0.732459010493092  0.0000
  Si     Si        0.663252247033559    0.293291924026878    0.728995811683538  0.0000
  Si     Si        0.161144060354545    0.702299922599830    0.300691615204017  0.0000
  Si     Si        0.345948397045871    0.322189884618069    0.288559492557707  0.0000
  Si     Si        0.663075228278687    0.302462266989098    0.038273824199860  0.0000
  Si     Si        0.830330328586825    0.720541896398436    0.044035204052116  0.0000
  Si     Si        0.153082719755435    0.708012169429077    0.995590581102950  0.0000
  Si     Si        0.332098650618069    0.736887121649282    0.984182969495105  0.0000
  Si     Si        0.160741752673395    0.307747649997959    0.987658129889437  0.0000
  Si     Si        0.653357985245252    0.702218094599779    0.039453192571113  0.0000
  Si     Si        0.840474885589380    0.324911994231790    0.046032840767767  0.0000
  O3     O3        0.116049584842402    0.175544784670397    0.384049458162303  0.0000
  O2     O2        0.392773352726723    0.856109908623428    0.375889481818420  0.0000
  O3     O3        0.912024217041942    0.208970002987668    0.644869083202526  0.0000
  O3     O3        0.591650600368173    0.820522966023057    0.630453495443422  0.0000
  O2     O2        0.886108557071556    0.876832463710164    0.664002791423236  0.0000
  O2     O2        0.610471990158012    0.154752912242420    0.650223409758719  0.0000
  O3     O3        0.105747887088370    0.812945092133778    0.389720447266931  0.0000
  O2     O2        0.403603760224107    0.202160826661530    0.371012621194677  0.0000
  O3     O3        0.981003514939043    0.000271786092491    0.487341979531864  0.0000
  O2     O2        0.485744986956689    0.028543846114408    0.531541702732625  0.0000
  O3     O3        0.007562488660632    0.008021708662207    0.221257138775220  0.0000
  O2     O2        0.520188946739477    0.011064283225498    0.285414561853671  0.0000
  O2     O2        0.025248398642287    0.005773268439541    0.730953665367261  0.0000
  O2     O2        0.500470117438900    0.988581911477095    0.782242770949499  0.0000
  O2     O2        0.614094436342135    0.167230595465849    0.125060586364396  0.0000
  O2     O2        0.880503632112006    0.858134606330215    0.128602803517238  0.0000
  O3     O3        0.404539848054498    0.216599183935600    0.880176494198916  0.0000
  O2     O2        0.098872875995009    0.829330761640541    0.908097409239910  0.0000
  O2     O2        0.372324982177899    0.888124566019853    0.898989433812261  0.0000
  O2     O2        0.106715683708295    0.178415326204385    0.903135775557512  0.0000
  O2     O2        0.598215253902687    0.820007893110408    0.127892329010860  0.0000
  O2     O2        0.894664794837342    0.201525588064241    0.134660977701102  0.0000
  O2     O2        0.486658553208162    0.019093903600039    0.036072745657661  0.0000
  O2     O2        0.978033660166253    0.015404795715140    0.971835878009095  0.0000
  O2     O2        0.143269013788880    0.497717026213942    0.319928250914314  0.0000
  O2     O2        0.365899020842700    0.525912902347308    0.317220139549832  0.0000
  O3     O3        0.867354789913923    0.539945319678335    0.703449573701034  0.0000
  O3     O3        0.631439189321072    0.484364670302162    0.703538462829611  0.0000
  O2     O2        0.258243836701781    0.278785652276900    0.332563858364505  0.0000
  O2     O2        0.250600279517592    0.744689052637087    0.336433607418955  0.0000
  O3     O3        0.750879726197032    0.280536042300459    0.681930957796568  0.0000
  O3     O3        0.747768635630665    0.741166261971014    0.678880118281263  0.0000
  O2     O2        0.157447854273229    0.250973600160945    0.140878794206960  0.0000
  O2     O2        0.346654232366038    0.770661122868688    0.139039657625258  0.0000
  O3     O3        0.851981127172692    0.272566460420881    0.895792980639630  0.0000
  O3     O3        0.643594689180821    0.759505546946210    0.889388843406890  0.0000
  O2     O2        0.833157285982201    0.761271793714060    0.889405407331278  0.0000
  O2     O2        0.658886098548187    0.250145913610410    0.885210817767527  0.0000
  O2     O2        0.144351641062625    0.757556121915337    0.148799914864733  0.0000
  O3     O3        0.355799524400366    0.280005115965370    0.136315485982929  0.0000
  O2     O2        0.630089514048305    0.497305982420432    0.056341159810568  0.0000
  O2     O2        0.863674214771121    0.527647520442399    0.071135730699893  0.0000
  O3     O3        0.365502988742277    0.551809316802153    0.945646318382013  0.0000
  O2     O2        0.129796936542851    0.505351275375529    0.971838584654538  0.0000
  O2     O2        0.751401559024176    0.295331411299980    0.087211902684959  0.0000
  O2     O2        0.741592239867826    0.730685948925092    0.088958616883898  0.0000
  O3     O3        0.246613157101768    0.296972622799262    0.933822109976545  0.0000
  O2     O2        0.241135374615584    0.739201635637250    0.951686042996293  0.0000
