data_c00659.vasp
_audit_creation_method             Generated by GULP
_audit_author_name                 Salvador R. G. Balestra
_symmetry_space_group_name_H-M     'P 1             '
_symmetry_Int_Tables_number        1

loop_
_symmetry_equiv_pos_site_id
_symmetry_equiv_pos_as_xyz
_cell_length_a                       17.0954
_cell_length_b                        7.6502
_cell_length_c                       10.2900
_cell_angle_alpha                   89.5357
_cell_angle_beta                    89.7802
_cell_angle_gamma                   89.6219

loop_
_atom_site_label
_atom_site_type_symbol
_atom_site_fract_x
_atom_site_fract_y
_atom_site_fract_z
_atom_site_charge
  Ge     Ge        0.052090000000021    0.000000000000000    0.372269999999958  0.0000
  Ge     Ge        0.343533599240471    0.726227006478369    0.272741261138198  0.0000
  Ge     Ge        0.672446798023020    0.743319490638666    0.012536373052079  0.0000
  Ge     Ge        0.831401672654239    0.290160274435844    0.016327684681310  0.0000
  Si     Si        0.457636068471323    0.016391544086470    0.357442529437375  0.0000
  Si     Si        0.953463915344604    0.009125860420499    0.637814361128848  0.0000
  Si     Si        0.556366839632775    0.030464186781285    0.614160945130084  0.0000
  Si     Si        0.557351936037838    0.028059876796108    0.099416156178689  0.0000
  Si     Si        0.943347862199159    0.000331369991803    0.124040033101654  0.0000
  Si     Si        0.447470483675554    0.013784076255277    0.859550730093350  0.0000
  Si     Si        0.057569369157221    0.021831065425383    0.890744942866224  0.0000
  Si     Si        0.170533208977110    0.292241366717089    0.267177747975743  0.0000
  Si     Si        0.836804490489665    0.298169417568074    0.707161520692598  0.0000
  Si     Si        0.670870372012757    0.738399087552829    0.703911609877501  0.0000
  Si     Si        0.848967647260430    0.699456623979465    0.709395523259646  0.0000
  Si     Si        0.658190901764871    0.336262214258311    0.709309728813602  0.0000
  Si     Si        0.159877068870478    0.696665031678800    0.276496397067523  0.0000
  Si     Si        0.351177929055968    0.316061708018011    0.266811830899603  0.0000
  Si     Si        0.648752875088892    0.346764647036154    0.014003243446336  0.0000
  Si     Si        0.854428113933648    0.687047202075369    0.015271390056552  0.0000
  Si     Si        0.350520402605619    0.325643228714104    0.963683940217144  0.0000
  Si     Si        0.158557963499681    0.707354184398657    0.973236374782050  0.0000
  Si     Si        0.339701796270659    0.727594387120247    0.963579055940193  0.0000
  Si     Si        0.169599433064155    0.307820557849312    0.965377707762507  0.0000
  O3     O3        0.119815745550714    0.163510018308148    0.352250868052295  0.0000
  O3     O3        0.400803574866317    0.852458112401159    0.370596834455555  0.0000
  O2     O2        0.889124095931049    0.164553727141973    0.622877668171794  0.0000
  O2     O2        0.618827925464737    0.871994431053726    0.619024919127116  0.0000
  O2     O2        0.909998368048905    0.821519236170913    0.632449882690302  0.0000
  O2     O2        0.598509592024680    0.216686765252204    0.630635431363313  0.0000
  O3     O3        0.097725527585711    0.799749605497778    0.361188671256355  0.0000
  O2     O2        0.405390532000012    0.191578885965811    0.353825660671792  0.0000
  O3     O3        0.016915759824053    0.022559000151119    0.527001112105107  0.0000
  O2     O2        0.518617014328310    0.028078850851203    0.473102623787644  0.0000
  O3     O3        0.974043033883528    0.012311055472703    0.268705188896548  0.0000
  O2     O2        0.504394821749148    0.995431951751864    0.223542172659375  0.0000
  O2     O2        0.997993418391271    0.030482178649679    0.773528014134656  0.0000
  O2     O2        0.487689520365367    0.006949727722774    0.719497163429941  0.0000
  O2     O2        0.585616778856389    0.228719023684497    0.090272541976902  0.0000
  O2     O2        0.917037893929892    0.803762916551872    0.090249486333785  0.0000
  O2     O2        0.406685211314071    0.203690096155037    0.877336621092247  0.0000
  O2     O2        0.100911128773620    0.833259038227839    0.892101176043703  0.0000
  O2     O2        0.383737942186747    0.859608311831682    0.866144910995353  0.0000
  O2     O2        0.121087603513105    0.176638118118725    0.875674000948096  0.0000
  O3     O3        0.631992278469478    0.902448020716758    0.107522780688294  0.0000
  O3     O3        0.869851047500218    0.129013987224295    0.112365757289524  0.0000
  O2     O2        0.511520547480405    0.973796714942172    0.969437356815812  0.0000
  O2     O2        0.010977677007473    0.059836904153812    0.023748209082185  0.0000
  O2     O2        0.144660400041085    0.490966913533734    0.294450775682981  0.0000
  O3     O3        0.372388765430723    0.512524620024971    0.296452281589436  0.0000
  O2     O2        0.869304944402182    0.495196203824730    0.686667588002444  0.0000
  O2     O2        0.638565129633295    0.541249424547445    0.686246145230826  0.0000
  O2     O2        0.261672645238366    0.272252221993312    0.303386828020199  0.0000
  O3     O3        0.246871606925164    0.746961397593713    0.317797015247598  0.0000
  O2     O2        0.746335701812051    0.293854246076326    0.661442643687191  0.0000
  O2     O2        0.761616025471640    0.742499518670365    0.658062649511044  0.0000
  O2     O2        0.159401057774361    0.249151249500339    0.115087729000206  0.0000
  O3     O3        0.353905546411997    0.783254624887945    0.110895801681790  0.0000
  O3     O3        0.840014360434998    0.234996056402029    0.855318346002715  0.0000
  O3     O3        0.666964599680365    0.801344570170203    0.851052500646867  0.0000
  O2     O2        0.853138724207455    0.738864090246049    0.862328815812915  0.0000
  O2     O2        0.650466985047359    0.292822309673107    0.861829622180521  0.0000
  O2     O2        0.148258583679880    0.751281961725194    0.125027893129339  0.0000
  O2     O2        0.364528937197409    0.275523109864195    0.113998842414060  0.0000
  O3     O3        0.624549506872404    0.545991577384999    0.032051026029696  0.0000
  O3     O3        0.878541446230219    0.487578759343026    0.036474038235812  0.0000
  O2     O2        0.370849030582953    0.529420907883715    0.940444858688664  0.0000
  O2     O2        0.137665972999745    0.505598054537858    0.944618888996433  0.0000
  O3     O3        0.735739103082965    0.314404527529579    0.065699755557826  0.0000
  O3     O3        0.767075797103011    0.719909424474102    0.066182585107420  0.0000
  O2     O2        0.260487531175437    0.294176784702920    0.925031120723185  0.0000
  O2     O2        0.247781655721165    0.740547044830972    0.931086986917233  0.0000
