data_c00683.vasp
_audit_creation_method             Generated by GULP
_audit_author_name                 Salvador R. G. Balestra
_symmetry_space_group_name_H-M     'P 1             '
_symmetry_Int_Tables_number        1

loop_
_symmetry_equiv_pos_site_id
_symmetry_equiv_pos_as_xyz
_cell_length_a                       17.2124
_cell_length_b                        7.6189
_cell_length_c                       10.2476
_cell_angle_alpha                   89.5563
_cell_angle_beta                    90.4768
_cell_angle_gamma                   90.1852

loop_
_atom_site_label
_atom_site_type_symbol
_atom_site_fract_x
_atom_site_fract_y
_atom_site_fract_z
_atom_site_charge
  Ge     Ge        0.052090000000021    0.000000000000000    0.372269999999958  0.0000
  Ge     Ge        0.832938078738803    0.303793728718168    0.709657364792422  0.0000
  Ge     Ge        0.650326973356643    0.346960266221516    0.022430186363673  0.0000
  Ge     Ge        0.347089137808275    0.348348325287645    0.950931088627704  0.0000
  Si     Si        0.450947182614069    0.014761721094085    0.355509362980519  0.0000
  Si     Si        0.951363774134784    0.016847346308649    0.632769597081361  0.0000
  Si     Si        0.548048795205308    0.021416606902710    0.618660396427368  0.0000
  Si     Si        0.553768051338869    0.030142601766868    0.107267609980696  0.0000
  Si     Si        0.939980408131604    0.018433296268249    0.127001833774348  0.0000
  Si     Si        0.442444400051977    0.033651478577463    0.862712344926826  0.0000
  Si     Si        0.051595204941173    0.025208241838623    0.890950998710675  0.0000
  Si     Si        0.171287697076592    0.292610426414778    0.262942883337510  0.0000
  Si     Si        0.336453416405017    0.727611692168864    0.271608007066821  0.0000
  Si     Si        0.664154397146147    0.735229386446786    0.706467364410742  0.0000
  Si     Si        0.843556771310843    0.714564800913538    0.706626200739545  0.0000
  Si     Si        0.651576236690930    0.328834715197999    0.710107819487109  0.0000
  Si     Si        0.157388307210357    0.696927181016016    0.276128481771577  0.0000
  Si     Si        0.349222743358683    0.322988832874219    0.261790552461262  0.0000
  Si     Si        0.844566250294831    0.710714759914166    0.010119204807008  0.0000
  Si     Si        0.151279842384185    0.713963465072451    0.974295233098569  0.0000
  Si     Si        0.331342365010853    0.751845172455107    0.967160858511956  0.0000
  Si     Si        0.165301192640437    0.315842187964371    0.958157384406336  0.0000
  Si     Si        0.665558676126526    0.749236496202982    0.010976643524015  0.0000
  Si     Si        0.831512889854282    0.310294731112852    0.021504642482891  0.0000
  O3     O3        0.120017162222642    0.161933948588690    0.345712158024368  0.0000
  O2     O2        0.387560242338478    0.857779587168317    0.360313965718771  0.0000
  O3     O3        0.891444085547991    0.175856304980708    0.615932327301413  0.0000
  O2     O2        0.612794690596308    0.868563148093277    0.620488625483524  0.0000
  O2     O2        0.900305850209511    0.838361419578908    0.622808309902649  0.0000
  O2     O2        0.588513798453476    0.211562201685544    0.632355922381397  0.0000
  O3     O3        0.098919695391054    0.800232944822785    0.365452491932663  0.0000
  O2     O2        0.408401210638850    0.202478079524985    0.344677477242412  0.0000
  O3     O3        0.018761004763725    0.020853129620823    0.529062387402078  0.0000
  O2     O2        0.502768621470062    0.012823153543913    0.483711252144051  0.0000
  O3     O3        0.971639230258290    0.014751775698440    0.272819036766246  0.0000
  O2     O2        0.508223315271868    0.979627028706131    0.236446207580099  0.0000
  O2     O2        0.989306741000246    0.035038079196118    0.776348868292953  0.0000
  O2     O2        0.484979877577217    0.986045809193928    0.730202320355637  0.0000
  O3     O3        0.584256120601720    0.228140703669339    0.112154259260260  0.0000
  O2     O2        0.899809628484258    0.831161541161598    0.097889229519901  0.0000
  O3     O3        0.411759594083081    0.231522437344247    0.858802347111735  0.0000
  O2     O2        0.095652984633067    0.838251359528410    0.888019835975898  0.0000
  O2     O2        0.367186740623543    0.909010507977822    0.882175575005339  0.0000
  O2     O2        0.112728554604454    0.184387933101987    0.873269820905735  0.0000
  O2     O2        0.628836881752844    0.904836974692562    0.094015678561094  0.0000
  O2     O2        0.879997110772242    0.178574224126899    0.113326181464295  0.0000
  O2     O2        0.500074129226702    0.996320666685996    0.982270439168421  0.0000
  O2     O2        0.011254633714004    0.051180304966578    0.029874200263382  0.0000
  O2     O2        0.142158702222127    0.489761169497780    0.290240375482865  0.0000
  O2     O2        0.366423930052063    0.528217476284896    0.289627306713538  0.0000
  O3     O3        0.865379852436685    0.515612434566290    0.684279334992384  0.0000
  O2     O2        0.633989705548277    0.536256915505121    0.687901742997820  0.0000
  O2     O2        0.261569833661530    0.275801527741184    0.304641514429038  0.0000
  O2     O2        0.246727507983929    0.740881603454190    0.314156879323456  0.0000
  O3     O3        0.737085160353169    0.287372764589933    0.659807323889435  0.0000
  O2     O2        0.753980846328035    0.749049623010778    0.663159138002443  0.0000
  O2     O2        0.165775080339811    0.252392275986358    0.108918249735222  0.0000
  O2     O2        0.343825573705692    0.786713191297109    0.121055984394013  0.0000
  O3     O3        0.834700557311660    0.247119876679752    0.872945960051034  0.0000
  O2     O2        0.657907197994638    0.791199646145191    0.856980847161470  0.0000
  O2     O2        0.853848911721345    0.764405353041605    0.859010775816330  0.0000
  O3     O3        0.643581320870180    0.282593666387814    0.861965637987066  0.0000
  O2     O2        0.140538389275638    0.758977372891922    0.126708655648630  0.0000
  O3     O3        0.361330958243522    0.282519765123810    0.110723974943407  0.0000
  O3     O3        0.625352749923338    0.564327753022939    0.040819156698126  0.0000
  O2     O2        0.867826068685004    0.507333636003519    0.030383693642982  0.0000
  O3     O3        0.369228305221797    0.567703926975158    0.931272397468029  0.0000
  O2     O2        0.129468816052333    0.511824913351640    0.946273996285594  0.0000
  O3     O3        0.744484256213132    0.313362249912320    0.073603285888403  0.0000
  O2     O2        0.755759729982193    0.737058407336601    0.052626761633880  0.0000
  O3     O3        0.251857133582515    0.314020032779333    0.904551453485473  0.0000
  O2     O2        0.239995539680085    0.746202787524725    0.933607007923869  0.0000
