data_c00649.vasp
_audit_creation_method             Generated by GULP
_audit_author_name                 Salvador R. G. Balestra
_symmetry_space_group_name_H-M     'P 1             '
_symmetry_Int_Tables_number        1

loop_
_symmetry_equiv_pos_site_id
_symmetry_equiv_pos_as_xyz
_cell_length_a                       17.1593
_cell_length_b                        7.6204
_cell_length_c                       10.2913
_cell_angle_alpha                   89.4457
_cell_angle_beta                    90.7825
_cell_angle_gamma                   89.6053

loop_
_atom_site_label
_atom_site_type_symbol
_atom_site_fract_x
_atom_site_fract_y
_atom_site_fract_z
_atom_site_charge
  Ge     Ge        0.052090000000021    0.000000000000000    0.372269999999958  0.0000
  Ge     Ge        0.354763949997128    0.677199869942959    0.287023586134234  0.0000
  Ge     Ge        0.330115397508942    0.286798633929366    0.967692834456171  0.0000
  Ge     Ge        0.846632553590583    0.326482306605560    0.041455665381768  0.0000
  Si     Si        0.455839960530278    0.986186470082759    0.371080517939146  0.0000
  Si     Si        0.950709115361085    0.007931297417157    0.634455317214674  0.0000
  Si     Si        0.553454286944399    0.000818094764359    0.630037014298164  0.0000
  Si     Si        0.550199563108374    0.011560826991337    0.110718194391099  0.0000
  Si     Si        0.944157632586272    0.007275187191720    0.118400230518498  0.0000
  Si     Si        0.438794046332743    0.001378063344175    0.869371516864510  0.0000
  Si     Si        0.055089299203782    0.017299015039980    0.882348195774151  0.0000
  Si     Si        0.157217572697487    0.311371220828983    0.283251393698698  0.0000
  Si     Si        0.846019821595478    0.310453919896171    0.731162936718736  0.0000
  Si     Si        0.658064821628277    0.695460279112927    0.713246772945530  0.0000
  Si     Si        0.836453046076295    0.715005353130893    0.726015942018474  0.0000
  Si     Si        0.667169723333669    0.292799841828896    0.724514618803588  0.0000
  Si     Si        0.171869287056032    0.714149218515901    0.295619492228366  0.0000
  Si     Si        0.336327986964924    0.264737027347659    0.275115917270352  0.0000
  Si     Si        0.663781480137877    0.301452083378632    0.029385591848144  0.0000
  Si     Si        0.828896264695006    0.729838197676436    0.030785061919854  0.0000
  Si     Si        0.166556517036976    0.728057955982392    0.993002996300775  0.0000
  Si     Si        0.348259396131978    0.691815379577017    0.981387242995799  0.0000
  Si     Si        0.148143710369141    0.330677087208516    0.980491362120544  0.0000
  Si     Si        0.649831207052941    0.699366363386255    0.016098234018623  0.0000
  O3     O3        0.098214855005923    0.200073663257568    0.367056033258657  0.0000
  O3     O3        0.421616390869100    0.791848389571386    0.378625273774041  0.0000
  O2     O2        0.904153531666585    0.190883524782016    0.648847126943979  0.0000
  O2     O2        0.600922601405810    0.817078189105380    0.625771830952183  0.0000
  O2     O2        0.891996870054617    0.844878350954265    0.648527781690416  0.0000
  O2     O2        0.613704828154851    0.160047462254537    0.644893311406288  0.0000
  O3     O3        0.122391655033600    0.837891878128929    0.387051620695180  0.0000
  O2     O2        0.382612259350725    0.120224467855797    0.361164506612437  0.0000
  O3     O3        0.985376213823544    0.999733844764748    0.493251312319087  0.0000
  O2     O2        0.506695419212683    0.029585803931227    0.497267450871873  0.0000
  O3     O3        0.000454120938103    0.951217965179629    0.233141591560648  0.0000
  O2     O2        0.511056464621746    0.012557837893270    0.248967177205498  0.0000
  O2     O2        0.022715177238903    0.995051843458681    0.736719841704574  0.0000
  O2     O2        0.492098786763946    0.997930200577288    0.744937495188470  0.0000
  O2     O2        0.613503208495697    0.165357630668406    0.111222112282698  0.0000
  O2     O2        0.867618411307411    0.884530928049172    0.112402014430975  0.0000
  O3     O3        0.373160505372243    0.150342516289356    0.857510145774436  0.0000
  O2     O2        0.124806678452950    0.877092512634800    0.905608116003915  0.0000
  O2     O2        0.398296661751083    0.812433193747032    0.884912267567888  0.0000
  O2     O2        0.085863046161094    0.216281800008169    0.899602235148292  0.0000
  O2     O2        0.589810482592363    0.821536849532935    0.091144941723347  0.0000
  O3     O3        0.912142132461682    0.204480795173503    0.133289883891740  0.0000
  O2     O2        0.487777428278522    0.054369952534699    0.997740591813916  0.0000
  O2     O2        0.986773269952076    0.979206054029145    0.981812150401047  0.0000
  O2     O2        0.140749453866110    0.515689379724286    0.308073674056296  0.0000
  O3     O3        0.373037039172173    0.455120273331212    0.295812039053876  0.0000
  O2     O2        0.864989498141692    0.515209413993674    0.704797887260687  0.0000
  O2     O2        0.638977374187865    0.491119844974618    0.690535282742123  0.0000
  O2     O2        0.246614474850062    0.266438020571739    0.321819677225513  0.0000
  O3     O3        0.261567265543614    0.720364300971396    0.338222945544275  0.0000
  O2     O2        0.757272551563671    0.269827004271134    0.685708035224805  0.0000
  O2     O2        0.747214324570828    0.735298425263895    0.675188774112817  0.0000
  O2     O2        0.143947643722732    0.267711977023519    0.130836672015869  0.0000
  O3     O3        0.365447258107233    0.747886853693027    0.128220966027737  0.0000
  O3     O3        0.858058141483488    0.266203368266250    0.881698074512058  0.0000
  O2     O2        0.643445364754783    0.743755894656858    0.863106020824573  0.0000
  O2     O2        0.839093843633658    0.761837699163366    0.877239070926661  0.0000
  O2     O2        0.660836940744125    0.251481471279808    0.877384266522940  0.0000
  O2     O2        0.162943350548374    0.778743800408846    0.144817936759059  0.0000
  O3     O3        0.338368431448562    0.210447584951624    0.125321640026335  0.0000
  O2     O2        0.628057008459843    0.497530151327765    0.044975676687542  0.0000
  O3     O3        0.867030341495230    0.544151252288795    0.067970531215867  0.0000
  O3     O3        0.371380595263074    0.492111143347813    0.958416387169854  0.0000
  O2     O2        0.126550002964861    0.538375903784227    0.969089694331699  0.0000
  O3     O3        0.750932047034428    0.292761211770755    0.083080840673555  0.0000
  O2     O2        0.737662062105096    0.732312809911476    0.065592655009246  0.0000
  O3     O3        0.232816554957907    0.298747844516557    0.924728070887368  0.0000
  O2     O2        0.256061997050455    0.716875111468977    0.950594064056422  0.0000
