data_c00671.vasp
_audit_creation_method             Generated by GULP
_audit_author_name                 Salvador R. G. Balestra
_symmetry_space_group_name_H-M     'P 1             '
_symmetry_Int_Tables_number        1

loop_
_symmetry_equiv_pos_site_id
_symmetry_equiv_pos_as_xyz
_cell_length_a                       17.1829
_cell_length_b                        7.6368
_cell_length_c                       10.2786
_cell_angle_alpha                   89.5139
_cell_angle_beta                    91.0999
_cell_angle_gamma                   90.3748

loop_
_atom_site_label
_atom_site_type_symbol
_atom_site_fract_x
_atom_site_fract_y
_atom_site_fract_z
_atom_site_charge
  Ge     Ge        0.052090000000021    0.000000000000000    0.372269999999958  0.0000
  Ge     Ge        0.841636214797425    0.312455625392377    0.700281167922634  0.0000
  Ge     Ge        0.824737113810747    0.735448079929140    0.704133286804467  0.0000
  Ge     Ge        0.822150205290094    0.718684039275923    0.017480611530304  0.0000
  Si     Si        0.451799991110934    0.991967441836732    0.339773417061362  0.0000
  Si     Si        0.947524174951492    0.012193829571636    0.623627165948443  0.0000
  Si     Si        0.539536546982182    0.987456809953389    0.612756214069524  0.0000
  Si     Si        0.549539152433909    0.980623536815580    0.084990136518401  0.0000
  Si     Si        0.933116865841323    0.004820669114394    0.129712547873703  0.0000
  Si     Si        0.429750646586028    0.001032556379544    0.851312643942045  0.0000
  Si     Si        0.041361667255266    0.991732796727596    0.888830801337909  0.0000
  Si     Si        0.159744624193597    0.300433849821592    0.270388474220288  0.0000
  Si     Si        0.343646713652655    0.690570810949720    0.253148699853326  0.0000
  Si     Si        0.646193523605658    0.678737845259274    0.699010116077878  0.0000
  Si     Si        0.658998245007489    0.278445709360610    0.693693818205143  0.0000
  Si     Si        0.164754828846777    0.706201188992992    0.265501763296047  0.0000
  Si     Si        0.339031093332996    0.287423807766780    0.254246615731496  0.0000
  Si     Si        0.661764004326979    0.271741636304360    0.999682285106382  0.0000
  Si     Si        0.325088476847365    0.289869491644038    0.951404378749267  0.0000
  Si     Si        0.154086190172871    0.702365252419659    0.963818216726961  0.0000
  Si     Si        0.333690930008288    0.688739534405301    0.949617576935546  0.0000
  Si     Si        0.145057841045368    0.300953971207718    0.969560774069587  0.0000
  Si     Si        0.644281900786959    0.662042368849759    0.007783549314459  0.0000
  Si     Si        0.841209217522544    0.310025284910057    0.005760820342025  0.0000
  O3     O3        0.107294132513128    0.188777512847708    0.364405082867375  0.0000
  O2     O2        0.402208263044606    0.812698657563755    0.334217327708197  0.0000
  O3     O3        0.908940150516885    0.202263994173198    0.610024749199765  0.0000
  O2     O2        0.578445173069094    0.798889950527283    0.637753062484984  0.0000
  O3     O3        0.877523706323788    0.873791281047720    0.606505248469885  0.0000
  O2     O2        0.603766158487284    0.141065822195955    0.619084097167108  0.0000
  O3     O3        0.112563282541950    0.823400101960126    0.353829485342420  0.0000
  O2     O2        0.394689917853716    0.158599516257159    0.335899637034750  0.0000
  O3     O3        0.016924357954670    0.984721352391457    0.526967195216042  0.0000
  O2     O2        0.501461787551896    0.992695711971090    0.471031054404870  0.0000
  O3     O3        0.972183096215623    0.006551724447121    0.270882323232174  0.0000
  O2     O2        0.511272601988203    0.002969007557450    0.222841160017267  0.0000
  O2     O2        0.981590588529368    0.981670989414588    0.769980722610760  0.0000
  O2     O2        0.471798784127918    0.016790567558940    0.715160990582229  0.0000
  O2     O2        0.621814835527435    0.115450687914721    0.079185748789225  0.0000
  O3     O3        0.868967162941696    0.852873952497742    0.127119503680098  0.0000
  O2     O2        0.367198257262416    0.156611948844654    0.857163252498182  0.0000
  O2     O2        0.102772269421139    0.833576181196331    0.876225633288851  0.0000
  O2     O2        0.386149317736023    0.813508772918446    0.860523741899544  0.0000
  O2     O2        0.086168211508759    0.179097647483915    0.887291467497358  0.0000
  O2     O2        0.578214363258531    0.781216040964873    0.070273184362959  0.0000
  O2     O2        0.895359570520585    0.194718681160489    0.102141327833048  0.0000
  O2     O2        0.490635419207605    0.028946506344458    0.968566179851147  0.0000
  O2     O2        0.996886155157793    0.959768821593788    0.022358867699575  0.0000
  O2     O2        0.143169750939152    0.504257757642459    0.292194966166308  0.0000
  O2     O2        0.363736024154989    0.487999491163068    0.282035541187795  0.0000
  O1     O1        0.861511960968428    0.529104232304525    0.689430513074378  0.0000
  O2     O2        0.627396654350270    0.475350429639422    0.667409564629617  0.0000
  O2     O2        0.250419035342749    0.257359738321881    0.297430146147611  0.0000
  O2     O2        0.256357453080096    0.734469415150893    0.296103848800643  0.0000
  O3     O3        0.746892663525861    0.266276647381108    0.647299060866939  0.0000
  O3     O3        0.729271475567257    0.731678857149080    0.644654891273888  0.0000
  O2     O2        0.136861110108500    0.250042777618627    0.121406462737750  0.0000
  O2     O2        0.352739759623361    0.732148085384001    0.100059231800329  0.0000
  O3     O3        0.851117918437553    0.242301687992320    0.860440533274974  0.0000
  O2     O2        0.652726982877366    0.704257955342986    0.854583017626182  0.0000
  O1     O1        0.827068663214299    0.801508580646587    0.863093090710676  0.0000
  O2     O2        0.657587127588218    0.230804464775002    0.846784405169082  0.0000
  O2     O2        0.147725132341396    0.755564778937298    0.114563732149411  0.0000
  O2     O2        0.345455564018169    0.244717448413964    0.101535248824384  0.0000
  O2     O2        0.620361829931711    0.457690040292599    0.028215023994177  0.0000
  O3     O3        0.863828622724825    0.512118379010520    0.016696613870488  0.0000
  O2     O2        0.353279695147947    0.487310966720869    0.918924093839861  0.0000
  O2     O2        0.123184272674025    0.503713644695354    0.943845733264413  0.0000
  O2     O2        0.751158747625806    0.284804412882841    0.046662323404705  0.0000
  O3     O3        0.727614333486591    0.700808588392210    0.071438148878482  0.0000
  O2     O2        0.232975746224419    0.269517735850221    0.925371176422214  0.0000
  O2     O2        0.242819210321037    0.721174393839497    0.918759081854902  0.0000
