data_c00639.vasp
_audit_creation_method             Generated by GULP
_audit_author_name                 Salvador R. G. Balestra
_symmetry_space_group_name_H-M     'P 1             '
_symmetry_Int_Tables_number        1

loop_
_symmetry_equiv_pos_site_id
_symmetry_equiv_pos_as_xyz
_cell_length_a                       17.1537
_cell_length_b                        7.6551
_cell_length_c                       10.2786
_cell_angle_alpha                   89.1242
_cell_angle_beta                    90.4758
_cell_angle_gamma                   89.6885

loop_
_atom_site_label
_atom_site_type_symbol
_atom_site_fract_x
_atom_site_fract_y
_atom_site_fract_z
_atom_site_charge
  Ge     Ge        0.052090000000021    0.000000000000000    0.372269999999958  0.0000
  Ge     Ge        0.351083043247639    0.676368323287782    0.281285936111420  0.0000
  Ge     Ge        0.828303682217108    0.705210533287499    0.034659094881339  0.0000
  Ge     Ge        0.327626797419560    0.283165731471354    0.964878552226739  0.0000
  Si     Si        0.454306416329876    0.980944343727423    0.368047183636939  0.0000
  Si     Si        0.948382305095518    0.001761126329830    0.631963367993432  0.0000
  Si     Si        0.552129859529353    0.994227146503197    0.627675732674230  0.0000
  Si     Si        0.547919820564112    0.994665725992601    0.106225583605839  0.0000
  Si     Si        0.940176564567905    0.992020830656095    0.118209926956944  0.0000
  Si     Si        0.435924255772739    0.997695515692546    0.866752274752638  0.0000
  Si     Si        0.049950277468461    0.003436433420371    0.882720044341301  0.0000
  Si     Si        0.158661923325210    0.305556083159584    0.287946196168151  0.0000
  Si     Si        0.842846243622150    0.303146397056910    0.727013058972641  0.0000
  Si     Si        0.657878360479990    0.687309751350511    0.711881832486661  0.0000
  Si     Si        0.835633095599807    0.707603277548117    0.724618049270355  0.0000
  Si     Si        0.663427726575109    0.287743959147338    0.715852224319129  0.0000
  Si     Si        0.167727902693147    0.706086772665769    0.293066003151036  0.0000
  Si     Si        0.338061653681758    0.266419209886203    0.272298140265258  0.0000
  Si     Si        0.659727509511670    0.285270012529764    0.019412980067472  0.0000
  Si     Si        0.161433338951175    0.712922009151958    0.989926070055578  0.0000
  Si     Si        0.343389650175768    0.688120670111619    0.975220496606126  0.0000
  Si     Si        0.145397052813694    0.314940723069516    0.984646151798540  0.0000
  Si     Si        0.647062101131671    0.680935768940447    0.018408293708607  0.0000
  Si     Si        0.840704966435841    0.302775048891570    0.029698503097690  0.0000
  O3     O3        0.104838406375506    0.190720074630253    0.379340048151274  0.0000
  O3     O3        0.416189426022356    0.791390799970354    0.374243768667978  0.0000
  O2     O2        0.900565199718589    0.182727215515935    0.645725294586682  0.0000
  O2     O2        0.600403710535775    0.812966332832555    0.629490897901666  0.0000
  O2     O2        0.891818643521798    0.835306752403577    0.644615608965876  0.0000
  O2     O2        0.611521683058627    0.156005835853980    0.633516436529868  0.0000
  O3     O3        0.116746719404333    0.827014653885410    0.383645975870261  0.0000
  O2     O2        0.385128185319192    0.124049596573381    0.358446405805182  0.0000
  O3     O3        0.982646999388853    0.995877007565069    0.489543633545647  0.0000
  O2     O2        0.504718438421778    0.014873878779622    0.495471420348393  0.0000
  O3     O3        0.006146296278355    0.987784098929014    0.224299400811405  0.0000
  O2     O2        0.511581291364438    0.000682968971137    0.247004951732576  0.0000
  O2     O2        0.020065762402561    0.993628550884954    0.734580801185204  0.0000
  O2     O2        0.491653161719915    0.995159905171046    0.744560704028636  0.0000
  O2     O2        0.615466415126343    0.139737534282625    0.102858831992889  0.0000
  O3     O3        0.878470637912520    0.838333255587118    0.137288212343714  0.0000
  O3     O3        0.372256933639646    0.149840603563120    0.854637305626618  0.0000
  O2     O2        0.117357411384446    0.857707234914259    0.902168316244767  0.0000
  O2     O2        0.392484253611082    0.811791473077700    0.878388123191046  0.0000
  O2     O2        0.082319886893315    0.198050839529583    0.908960968788938  0.0000
  O2     O2        0.581912388609095    0.800732104273412    0.083926572585076  0.0000
  O2     O2        0.892622321880984    0.174680958941963    0.119532080273954  0.0000
  O2     O2        0.484261550380320    0.043811646865166    0.996975725042707  0.0000
  O2     O2        0.978638002280049    0.959780268216271    0.977090925744940  0.0000
  O2     O2        0.138285884972668    0.507650618938672    0.309939687019785  0.0000
  O3     O3        0.373736889495217    0.457227167490187    0.289700688320061  0.0000
  O2     O2        0.863661384761118    0.507031598095808    0.706076988976977  0.0000
  O2     O2        0.636317974555936    0.486252174320857    0.683424098530170  0.0000
  O2     O2        0.249126743962640    0.270451538108419    0.322790508374593  0.0000
  O3     O3        0.257698411418753    0.716956226542621    0.333284505170173  0.0000
  O2     O2        0.754341125535991    0.266278851650484    0.680477942907032  0.0000
  O2     O2        0.746794642597918    0.725665594589104    0.670953123585053  0.0000
  O2     O2        0.144310088975805    0.257759885456035    0.136613631479620  0.0000
  O3     O3        0.360492687559695    0.746115342422009    0.121495341044396  0.0000
  O2     O2        0.852650810057783    0.253681061695928    0.878867190361619  0.0000
  O2     O2        0.648810545076525    0.724361890591175    0.864530104543218  0.0000
  O3     O3        0.837378173519366    0.762921366297159    0.873254755990779  0.0000
  O2     O2        0.651819409033846    0.241092625576468    0.867454660871260  0.0000
  O2     O2        0.157687193707984    0.765723397244647    0.141235205174441  0.0000
  O3     O3        0.338818934799706    0.209557099242915    0.123156792197269  0.0000
  O2     O2        0.624157417414198    0.478018739959750    0.043811196717566  0.0000
  O3     O3        0.865701406541897    0.497375354447370    0.057430393002871  0.0000
  O3     O3        0.366938714555589    0.489673476272467    0.952373444873910  0.0000
  O2     O2        0.123455417598671    0.521444911530081    0.969450986469648  0.0000
  O2     O2        0.749580087782389    0.281248374123619    0.063892930560314  0.0000
  O3     O3        0.731377370547416    0.716202121159264    0.077589323154228  0.0000
  O3     O3        0.229735298504401    0.284101813064152    0.925646311083995  0.0000
  O2     O2        0.250859422906202    0.707548896215836    0.945518841940253  0.0000
