data_c00622.vasp
_audit_creation_method             Generated by GULP
_audit_author_name                 Salvador R. G. Balestra
_symmetry_space_group_name_H-M     'P 1             '
_symmetry_Int_Tables_number        1

loop_
_symmetry_equiv_pos_site_id
_symmetry_equiv_pos_as_xyz
_cell_length_a                       17.2551
_cell_length_b                        7.6563
_cell_length_c                       10.2240
_cell_angle_alpha                   88.7365
_cell_angle_beta                    90.0952
_cell_angle_gamma                   89.0752

loop_
_atom_site_label
_atom_site_type_symbol
_atom_site_fract_x
_atom_site_fract_y
_atom_site_fract_z
_atom_site_charge
  Ge     Ge        0.052090000000021    0.000000000000000    0.372269999999958  0.0000
  Ge     Ge        0.351986885139681    0.671779581255781    0.292454138132372  0.0000
  Ge     Ge        0.663545506127317    0.307335504517787    0.720244720371611  0.0000
  Ge     Ge        0.332767552409533    0.287039000381260    0.971315681959195  0.0000
  Si     Si        0.453828795140243    0.974063408678074    0.382517814451685  0.0000
  Si     Si        0.954835508404947    0.006367177852161    0.638618732311696  0.0000
  Si     Si        0.553470296258211    0.012809816287416    0.637857756619940  0.0000
  Si     Si        0.553913156496018    0.005805590483362    0.128206976073928  0.0000
  Si     Si        0.943002242868461    0.990714701485954    0.114848700870012  0.0000
  Si     Si        0.443863787899689    0.997946987431333    0.885397025374148  0.0000
  Si     Si        0.057997609352696    0.016635202897179    0.882832280307269  0.0000
  Si     Si        0.159588409623595    0.305930266960415    0.289718430397234  0.0000
  Si     Si        0.845062638656025    0.307281450736665    0.730906700239259  0.0000
  Si     Si        0.665877559175071    0.716886293578837    0.720928787599815  0.0000
  Si     Si        0.844177086974367    0.708782267183327    0.734624888736177  0.0000
  Si     Si        0.170089373835524    0.706732824581876    0.299400612231198  0.0000
  Si     Si        0.337653770804561    0.261871818952865    0.281381042303249  0.0000
  Si     Si        0.660295685929396    0.299244899128691    0.031598531450027  0.0000
  Si     Si        0.835735078853187    0.697998872442308    0.041083606727406  0.0000
  Si     Si        0.167665262555672    0.721353209849473    0.994236492634772  0.0000
  Si     Si        0.348181178616296    0.690396435316537    0.983640678544092  0.0000
  Si     Si        0.151826478255654    0.324401026081933    0.984213278592632  0.0000
  Si     Si        0.657833053596536    0.701291208449316    0.027020965933891  0.0000
  Si     Si        0.838603922657964    0.301879719916131    0.039352244769844  0.0000
  O3     O3        0.102289382595847    0.192583127187708    0.375740366368138  0.0000
  O3     O3        0.418171758884493    0.783041855007851    0.383076354905299  0.0000
  O2     O2        0.906102388798776    0.184553430332729    0.658190983312906  0.0000
  O2     O2        0.616514754900846    0.855029369797582    0.634120052696665  0.0000
  O2     O2        0.901653389957525    0.837708642761639    0.660622547173301  0.0000
  O3     O3        0.600128707006372    0.190661150232829    0.628695481180154  0.0000
  O3     O3        0.117962961966526    0.828798305228556    0.388103917236043  0.0000
  O2     O2        0.383825503150602    0.114430260932375    0.365050354283816  0.0000
  O3     O3        0.983278909575636    0.999910744117308    0.491695348128953  0.0000
  O2     O2        0.493632271677643    0.003759505650397    0.520475378426830  0.0000
  O3     O3        0.005726636140482    0.977060574659379    0.225550710315974  0.0000
  O2     O2        0.518601921586208    0.998496919523225    0.271766895644143  0.0000
  O2     O2        0.029908940760647    0.002530197760857    0.733417133139294  0.0000
  O2     O2        0.505794095584806    0.996828922385355    0.771372145216932  0.0000
  O2     O2        0.609387513244815    0.172737568590607    0.122481405656619  0.0000
  O2     O2        0.885518629359276    0.826576700143267    0.127756957572368  0.0000
  O3     O3        0.381826174419951    0.153463490315508    0.866061675266322  0.0000
  O2     O2        0.124329375055018    0.869660445164951    0.907799324618897  0.0000
  O2     O2        0.399072658717514    0.814605536566151    0.889629909137236  0.0000
  O2     O2        0.090545298437150    0.210646319340277    0.904939576961597  0.0000
  O2     O2        0.600738707457715    0.824923434755255    0.107211488604923  0.0000
  O2     O2        0.892574311147747    0.170022891781192    0.124043012598814  0.0000
  O2     O2        0.486164580358621    0.033201708823022    0.022647239592008  0.0000
  O2     O2        0.984777555280105    0.982359505684544    0.974686907536938  0.0000
  O2     O2        0.140710211334015    0.508632654236371    0.313356409724352  0.0000
  O3     O3        0.372864843038271    0.451058852370240    0.303172734978502  0.0000
  O2     O2        0.867695599022060    0.509072924006991    0.703739461098778  0.0000
  O3     O3        0.640350598371625    0.523935058842852    0.690268438221546  0.0000
  O2     O2        0.248438640975980    0.263728532088955    0.329794111188853  0.0000
  O3     O3        0.258794727975743    0.714626393393474    0.343934973781298  0.0000
  O3     O3        0.759412326870965    0.272532982631227    0.679155175154187  0.0000
  O2     O2        0.756239949394119    0.744182581633044    0.685969177737777  0.0000
  O2     O2        0.148762827024119    0.263195000864953    0.136319549951914  0.0000
  O3     O3        0.362399262996776    0.742168454901180    0.132130437917957  0.0000
  O2     O2        0.847824639473937    0.265617369777761    0.885986017579084  0.0000
  O2     O2        0.652317724815257    0.753466923283890    0.874344421329436  0.0000
  O2     O2        0.848259046065718    0.742579524960330    0.888647147889341  0.0000
  O3     O3        0.650720728614454    0.247391898490061    0.882238275165586  0.0000
  O2     O2        0.163054708573034    0.769896653613205    0.146789923029949  0.0000
  O3     O3        0.340174058214356    0.211734731957712    0.130565524613585  0.0000
  O2     O2        0.632518753548265    0.500575190776129    0.048814001079475  0.0000
  O2     O2        0.863007386568182    0.498694946323424    0.072437802458644  0.0000
  O3     O3        0.372191973487319    0.492329376654766    0.959209459444270  0.0000
  O2     O2        0.130158209185462    0.531549189108528    0.970694863451385  0.0000
  O2     O2        0.749235379132142    0.275274049123125    0.077643294960682  0.0000
  O2     O2        0.745507805307348    0.724228972108857    0.077343428896930  0.0000
  O3     O3        0.236470970781504    0.292453200072713    0.926626747946138  0.0000
  O2     O2        0.256852626819774    0.715068868067474    0.949909630428275  0.0000
