data_c00617.vasp
_audit_creation_method             Generated by GULP
_audit_author_name                 Salvador R. G. Balestra
_symmetry_space_group_name_H-M     'P 1             '
_symmetry_Int_Tables_number        1

loop_
_symmetry_equiv_pos_site_id
_symmetry_equiv_pos_as_xyz
_cell_length_a                       17.2641
_cell_length_b                        7.6671
_cell_length_c                       10.2124
_cell_angle_alpha                   89.6019
_cell_angle_beta                    90.1224
_cell_angle_gamma                   90.0258

loop_
_atom_site_label
_atom_site_type_symbol
_atom_site_fract_x
_atom_site_fract_y
_atom_site_fract_z
_atom_site_charge
  Ge     Ge        0.052090000000021    0.000000000000000    0.372269999999958  0.0000
  Ge     Ge        0.340415695615388    0.720073930560348    0.276854634612045  0.0000
  Ge     Ge        0.841767870375933    0.699204541281023    0.700612784864798  0.0000
  Ge     Ge        0.164691251508348    0.304903655640311    0.961352092511019  0.0000
  Si     Si        0.455773282319079    0.010141211737302    0.353328473345938  0.0000
  Si     Si        0.950269015809720    0.000921676070599    0.631795314998697  0.0000
  Si     Si        0.549780292984198    0.012402224158499    0.615748950483480  0.0000
  Si     Si        0.557632425890749    0.006577666088215    0.097329942230290  0.0000
  Si     Si        0.941840406729457    0.007597612700925    0.124262587942949  0.0000
  Si     Si        0.442573847679204    0.020064406730227    0.859179999629312  0.0000
  Si     Si        0.053392906339577    0.011593330526573    0.885348226574532  0.0000
  Si     Si        0.169930237074198    0.288465151548199    0.269463766798843  0.0000
  Si     Si        0.836347793258239    0.291735066727691    0.711293020353242  0.0000
  Si     Si        0.660629712808720    0.712360599657443    0.706136526991296  0.0000
  Si     Si        0.656898759800336    0.310876706252702    0.713196013815717  0.0000
  Si     Si        0.158764327882502    0.696172018613131    0.277127640458923  0.0000
  Si     Si        0.347998600260359    0.312516876964792    0.266754048691580  0.0000
  Si     Si        0.656750833495320    0.317751324523190    0.018544877659894  0.0000
  Si     Si        0.844801011128469    0.700879826864441    0.013841631176366  0.0000
  Si     Si        0.346142215360323    0.329710070017194    0.958843746417014  0.0000
  Si     Si        0.157081731007749    0.709026071138432    0.973776224028073  0.0000
  Si     Si        0.337178169399914    0.727911075568800    0.965900075269384  0.0000
  Si     Si        0.666683118370897    0.713060845984389    0.014735523246743  0.0000
  Si     Si        0.835848809720732    0.301876087061853    0.017551767166254  0.0000
  O3     O3        0.118808518827647    0.165767635970972    0.359500759547283  0.0000
  O3     O3        0.397868477200782    0.849848082512701    0.372420455684389  0.0000
  O2     O2        0.885259399894081    0.153060368330724    0.629529612311025  0.0000
  O2     O2        0.600727523100787    0.837976666978802    0.632003443752908  0.0000
  O3     O3        0.904628383797463    0.821749759436750    0.608112500057758  0.0000
  O2     O2        0.602203678621131    0.183898787606944    0.631797963968054  0.0000
  O3     O3        0.097155454312104    0.799551865629371    0.362152995343605  0.0000
  O2     O2        0.405279713155841    0.186003375487801    0.345355637631834  0.0000
  O3     O3        0.016306712916986    0.029391021789257    0.527636295551006  0.0000
  O2     O2        0.516608773821637    0.019891065282018    0.470301466946446  0.0000
  O3     O3        0.973228640214365    0.012847533525325    0.270017852566116  0.0000
  O2     O2        0.502819330748195    0.983168800495415    0.220128934450454  0.0000
  O2     O2        0.989184112996555    0.994759212849729    0.775027206448625  0.0000
  O2     O2        0.477982580321221    0.011595803485642    0.715024169786003  0.0000
  O2     O2        0.601741263789069    0.192593545698510    0.104179849048216  0.0000
  O2     O2        0.900306067829200    0.821891988510787    0.100585991166327  0.0000
  O2     O2        0.404337665904477    0.210113170209725    0.876483189904253  0.0000
  O2     O2        0.105740956774231    0.837635467333536    0.885659585903037  0.0000
  O2     O2        0.379201525872455    0.866514953101023    0.871312261676276  0.0000
  O3     O3        0.108506305944356    0.176326574180277    0.862169412730061  0.0000
  O2     O2        0.619410923573623    0.849827638949947    0.100153395507755  0.0000
  O2     O2        0.882282589240935    0.167749429655090    0.107914590496524  0.0000
  O2     O2        0.509556162196085    0.989133016517841    0.964505905418262  0.0000
  O2     O2        0.013571931056333    0.035431092324335    0.026614804241109  0.0000
  O2     O2        0.143047012150816    0.489269764738232    0.283178215713271  0.0000
  O3     O3        0.371191135660174    0.508180881287471    0.297183109636160  0.0000
  O3     O3        0.864582329434396    0.483571984093367    0.675562114944229  0.0000
  O2     O2        0.635909541401414    0.511474225867110    0.681123169785755  0.0000
  O2     O2        0.259971528053464    0.274406448726901    0.312174297224443  0.0000
  O3     O3        0.245127916137591    0.737514457914640    0.325167253835549  0.0000
  O2     O2        0.745685296439887    0.273426345619295    0.674659061055820  0.0000
  O3     O3        0.747037294369695    0.740385966617329    0.655111571704873  0.0000
  O3     O3        0.160239941442372    0.228885297023876    0.120313551435108  0.0000
  O3     O3        0.349084507755846    0.783375474378541    0.114871948618146  0.0000
  O2     O2        0.847139387293097    0.253592568536826    0.865938288552946  0.0000
  O2     O2        0.659411683421207    0.753942118548248    0.860690730841467  0.0000
  O3     O3        0.854584203498101    0.750868442742354    0.863381262707737  0.0000
  O2     O2        0.644258711082546    0.271425519900950    0.866576771023011  0.0000
  O2     O2        0.149880579826309    0.761339543681977    0.126384913615766  0.0000
  O2     O2        0.352403544112743    0.276139873196667    0.111370860336281  0.0000
  O2     O2        0.634522226719435    0.518647046147429    0.045439594998903  0.0000
  O2     O2        0.867284434332947    0.498215932763553    0.039785002697969  0.0000
  O2     O2        0.370447913468046    0.532921243380882    0.942072767533198  0.0000
  O3     O3        0.128849118914658    0.514354231629929    0.950711331035007  0.0000
  O2     O2        0.746009923700398    0.287187596138216    0.057222446535502  0.0000
  O2     O2        0.755961473632865    0.728880411889097    0.057170091540968  0.0000
  O3     O3        0.259551199793088    0.300831499106170    0.908986619598319  0.0000
  O2     O2        0.246349111371899    0.727116489141009    0.930406149434324  0.0000
