data_c00692.vasp
_audit_creation_method             Generated by GULP
_audit_author_name                 Salvador R. G. Balestra
_symmetry_space_group_name_H-M     'P 1             '
_symmetry_Int_Tables_number        1

loop_
_symmetry_equiv_pos_site_id
_symmetry_equiv_pos_as_xyz
_cell_length_a                       17.1760
_cell_length_b                        7.6245
_cell_length_c                       10.2681
_cell_angle_alpha                   88.8505
_cell_angle_beta                    90.7746
_cell_angle_gamma                   90.0793

loop_
_atom_site_label
_atom_site_type_symbol
_atom_site_fract_x
_atom_site_fract_y
_atom_site_fract_z
_atom_site_charge
  Ge     Ge        0.052090000000021    0.000000000000000    0.372269999999958  0.0000
  Ge     Ge        0.840583700876938    0.316175767613230    0.714491234144838  0.0000
  Ge     Ge        0.825467951425197    0.707517798230444    0.034606943600716  0.0000
  Ge     Ge        0.141643431948248    0.320344230918981    0.984030713981675  0.0000
  Si     Si        0.451249904781303    0.987848549757134    0.364494489320699  0.0000
  Si     Si        0.943476576727966    0.010782541807415    0.623287351732717  0.0000
  Si     Si        0.541785110664965    0.999493562593149    0.634039294278137  0.0000
  Si     Si        0.552061394985382    0.983346640588217    0.115149370269775  0.0000
  Si     Si        0.939016279868246    0.992103691013213    0.118588530224725  0.0000
  Si     Si        0.433958226056889    0.005896265455722    0.880602877600395  0.0000
  Si     Si        0.043840911912208    0.008540333186091    0.877970284615581  0.0000
  Si     Si        0.156562768763596    0.307759922892791    0.291978570762754  0.0000
  Si     Si        0.347958615532414    0.683242767275925    0.276390456866203  0.0000
  Si     Si        0.648084495932349    0.690245968660413    0.721411886170095  0.0000
  Si     Si        0.825715167040567    0.729447569684219    0.726226292010213  0.0000
  Si     Si        0.658190793623337    0.289574373022218    0.711204449396326  0.0000
  Si     Si        0.168709665990455    0.714275438509936    0.289393331703988  0.0000
  Si     Si        0.334578864927575    0.282103999012734    0.273006871414399  0.0000
  Si     Si        0.662563026137534    0.273800094643530    0.016721073650783  0.0000
  Si     Si        0.323681532752869    0.295088989164373    0.966647917517618  0.0000
  Si     Si        0.158018168857459    0.728626719871214    0.987772119971913  0.0000
  Si     Si        0.338384823791750    0.691620610940705    0.973803700057193  0.0000
  Si     Si        0.644899052114996    0.667305348407035    0.027688631263658  0.0000
  Si     Si        0.843302514724656    0.303666314317731    0.021487386229413  0.0000
  O3     O3        0.101465111539261    0.196690744680798    0.386335366572125  0.0000
  O2     O2        0.408095848723882    0.800155402912973    0.357736742899929  0.0000
  O3     O3        0.906824482027530    0.204139132432338    0.623624861999124  0.0000
  O2     O2        0.587968310718554    0.816306319817544    0.645021050344720  0.0000
  O2     O2        0.873064561531099    0.873801862434932    0.643918941702723  0.0000
  O2     O2        0.602524419767898    0.160480159742748    0.631391766562314  0.0000
  O3     O3        0.120749687759727    0.833826874614014    0.383646724505223  0.0000
  O2     O2        0.388706384256355    0.143186123651375    0.348280900683247  0.0000
  O3     O3        0.981753716095993    0.974940837702926    0.486649217682844  0.0000
  O2     O2        0.491997870154774    0.003808960543196    0.503000882173328  0.0000
  O3     O3        0.005655211681623    0.986535168667813    0.224355340369723  0.0000
  O2     O2        0.517466436784491    0.005117568876782    0.256883999267077  0.0000
  O2     O2        0.011612734693430    0.986750423117715    0.732094672018762  0.0000
  O2     O2        0.482854364403627    0.020916404698425    0.751237496410615  0.0000
  O2     O2        0.623333907390126    0.119383530848729    0.100484737944500  0.0000
  O3     O3        0.875242455326075    0.841366494051619    0.139085957947141  0.0000
  O2     O2        0.370892201393328    0.161432530775457    0.879249516949921  0.0000
  O2     O2        0.117660582168546    0.880026464669920    0.900209069931571  0.0000
  O2     O2        0.390603414671665    0.818007335795347    0.884120821468069  0.0000
  O3     O3        0.072376421146271    0.206625562615121    0.897570521569555  0.0000
  O2     O2        0.582003422469365    0.784097873953248    0.101280371769397  0.0000
  O2     O2        0.895956387038380    0.180809312600084    0.116448296319127  0.0000
  O2     O2        0.488223693076647    0.031719580195601    0.006239698218685  0.0000
  O2     O2        0.976682482615472    0.953369217232934    0.978031723166633  0.0000
  O2     O2        0.140271725123994    0.513842671230762    0.306476823890913  0.0000
  O2     O2        0.366500003226622    0.477809207233048    0.300060168807654  0.0000
  O3     O3        0.860681210770224    0.537774362085643    0.705575105240777  0.0000
  O2     O2        0.627380921003894    0.488844993086951    0.690804051354626  0.0000
  O2     O2        0.246929953061050    0.264564609027627    0.325664446539759  0.0000
  O2     O2        0.260660452981802    0.725803657433677    0.321400036807431  0.0000
  O3     O3        0.746028334353120    0.277472298724051    0.663058242059401  0.0000
  O2     O2        0.735786613641670    0.730815490338881    0.675422953920171  0.0000
  O3     O3        0.137078577698993    0.252646443667857    0.144739798928858  0.0000
  O2     O2        0.357380348554175    0.733436840263015    0.124179675525446  0.0000
  O3     O3        0.854128713822928    0.245461869381142    0.873902128280441  0.0000
  O2     O2        0.643144263346306    0.723037568407674    0.875325789103018  0.0000
  O3     O3        0.827437915831429    0.782853328323533    0.875734246618051  0.0000
  O2     O2        0.656722905679504    0.233218823972747    0.863744257851764  0.0000
  O2     O2        0.153175545339337    0.778189231192075    0.139943309297252  0.0000
  O2     O2        0.332297537821483    0.244113786004628    0.119557411792332  0.0000
  O2     O2        0.622478511910345    0.461380304879577    0.044933797484012  0.0000
  O3     O3        0.868080064651529    0.502381204228961    0.041557923947010  0.0000
  O2     O2        0.358146190702707    0.490726670456874    0.942334619519493  0.0000
  O3     O3        0.119230439202078    0.540954664318636    0.966272751899841  0.0000
  O2     O2        0.752603778970120    0.283343969049161    0.059286754042162  0.0000
  O3     O3        0.730214277001824    0.699046335739420    0.085268071599762  0.0000
  O3     O3        0.234038857852455    0.286951886461817    0.925707715270935  0.0000
  O2     O2        0.247545791648820    0.723477955920685    0.944186962614792  0.0000
