data_c00614.vasp
_audit_creation_method             Generated by GULP
_audit_author_name                 Salvador R. G. Balestra
_symmetry_space_group_name_H-M     'P 1             '
_symmetry_Int_Tables_number        1

loop_
_symmetry_equiv_pos_site_id
_symmetry_equiv_pos_as_xyz
_cell_length_a                       17.1981
_cell_length_b                        7.6408
_cell_length_c                       10.2076
_cell_angle_alpha                   89.2524
_cell_angle_beta                    89.6942
_cell_angle_gamma                   90.5027

loop_
_atom_site_label
_atom_site_type_symbol
_atom_site_fract_x
_atom_site_fract_y
_atom_site_fract_z
_atom_site_charge
  Ge     Ge        0.052090000000021    0.000000000000000    0.372269999999958  0.0000
  Ge     Ge        0.336261827283342    0.737594718693068    0.277462760248690  0.0000
  Ge     Ge        0.846649077920202    0.708316276981527    0.704370198079759  0.0000
  Ge     Ge        0.349494880028194    0.351333083870117    0.952550784288817  0.0000
  Si     Si        0.454612262756771    0.022483291228649    0.354136356897294  0.0000
  Si     Si        0.955438734701699    0.015699002658164    0.636123192290230  0.0000
  Si     Si        0.552605801859369    0.015995948633440    0.611130121245090  0.0000
  Si     Si        0.553630041882981    0.012235019452465    0.095240220508631  0.0000
  Si     Si        0.938970429072805    0.015260896856967    0.130931443161388  0.0000
  Si     Si        0.442624049572546    0.038364961431948    0.851855838698533  0.0000
  Si     Si        0.054623197449342    0.020635522962078    0.895091270828981  0.0000
  Si     Si        0.174445432005586    0.290834941228997    0.264989494451257  0.0000
  Si     Si        0.838038506502723    0.298579014406045    0.714487164227962  0.0000
  Si     Si        0.664457820693655    0.720948320863899    0.702782456561519  0.0000
  Si     Si        0.658164347072016    0.317668194374520    0.711740008821103  0.0000
  Si     Si        0.154343898431239    0.690426716751760    0.282432787874765  0.0000
  Si     Si        0.353329037526848    0.327737782176201    0.262506899464170  0.0000
  Si     Si        0.654144239811505    0.324753205373710    0.017024387352234  0.0000
  Si     Si        0.843645903834966    0.708433153917766    0.016990502335155  0.0000
  Si     Si        0.154120817542025    0.709143878579142    0.976600668476338  0.0000
  Si     Si        0.333534784764113    0.756971757129139    0.967883505202538  0.0000
  Si     Si        0.168242969935457    0.315324131197946    0.958401466990231  0.0000
  Si     Si        0.664634464977259    0.721809988193725    0.011063578686474  0.0000
  Si     Si        0.833737131531425    0.307905539695512    0.020647113534923  0.0000
  O3     O3        0.127124813400770    0.145043648788485    0.342386823021681  0.0000
  O3     O3        0.391039617903854    0.870777394352279    0.375768898404059  0.0000
  O2     O2        0.887079553472831    0.160023702538634    0.632774725641594  0.0000
  O2     O2        0.606746094146569    0.846181492642032    0.623605119647427  0.0000
  O3     O3        0.912831699527634    0.830479730630772    0.615204528814346  0.0000
  O2     O2        0.602622347887090    0.192510769912749    0.629678926386161  0.0000
  O3     O3        0.090486223036467    0.792068857837045    0.364497283659862  0.0000
  O2     O2        0.410901781696482    0.208107365618696    0.348299236642428  0.0000
  O3     O3        0.020513416550234    0.046324826273082    0.528250501839400  0.0000
  O2     O2        0.518403452980793    0.023772782756546    0.466658947939463  0.0000
  O3     O3        0.970851831013652    0.021264233119495    0.276137414788363  0.0000
  O2     O2        0.498787259189575    0.982861562483246    0.218896461882257  0.0000
  O2     O2        0.994621323376483    0.023471445038696    0.778208631635011  0.0000
  O2     O2        0.480927351267467    0.002236163644006    0.711844028768392  0.0000
  O2     O2        0.597269175022260    0.200559940844110    0.102861547129802  0.0000
  O2     O2        0.897409825970930    0.828299233054598    0.107836379043201  0.0000
  O3     O3        0.412385747006722    0.235262764540287    0.855632331985347  0.0000
  O2     O2        0.098932585485788    0.835554503317441    0.893120511568167  0.0000
  O2     O2        0.369490700184007    0.906782109828838    0.872968952046071  0.0000
  O2     O2        0.115503008165965    0.180962360800490    0.877334802233924  0.0000
  O2     O2        0.616387330361909    0.857618845805052    0.095410394610172  0.0000
  O2     O2        0.878847095498233    0.173827045045283    0.113148647619971  0.0000
  O2     O2        0.504918452810021    0.997601392625546    0.963584567823743  0.0000
  O2     O2        0.011585622568807    0.043749998914946    0.033330647492619  0.0000
  O2     O2        0.139611942147699    0.481996120800285    0.295288934326300  0.0000
  O3     O3        0.373104963593138    0.528680827998846    0.284880574771110  0.0000
  O3     O3        0.867768429865592    0.491456341071570    0.680358314693361  0.0000
  O2     O2        0.638964924121639    0.519432812270430    0.678968955388138  0.0000
  O2     O2        0.264385085301281    0.288094801383435    0.308336548354604  0.0000
  O3     O3        0.240707843370087    0.737068894632776    0.329679440282759  0.0000
  O2     O2        0.747505805588591    0.279404681148561    0.675265861407583  0.0000
  O3     O3        0.752320464276740    0.749119046977909    0.655879696256831  0.0000
  O2     O2        0.171237868862941    0.254094627485604    0.110056124985197  0.0000
  O3     O3        0.341250057744142    0.813163046806060    0.117506295604651  0.0000
  O2     O2        0.846271512393999    0.258563506579762    0.869522508428755  0.0000
  O2     O2        0.659572286587354    0.764716483425313    0.856808975650566  0.0000
  O3     O3        0.857449939480615    0.761165748620717    0.867255389018031  0.0000
  O2     O2        0.643133748981331    0.276977989139606    0.864993861128605  0.0000
  O2     O2        0.145672397933281    0.751352618778342    0.130230491236957  0.0000
  O3     O3        0.362457040427655    0.278072838321664    0.111141272276193  0.0000
  O2     O2        0.631497550506362    0.526227281706976    0.040713801875696  0.0000
  O2     O2        0.865283608430955    0.505042631916593    0.042718485933151  0.0000
  O3     O3        0.373212370230469    0.571027475143782    0.943744037775580  0.0000
  O2     O2        0.130266318750567    0.508622753461087    0.947485376489279  0.0000
  O2     O2        0.742976361154916    0.293914228634593    0.058439998413641  0.0000
  O2     O2        0.753722407334111    0.736480651816712    0.055658742416170  0.0000
  O3     O3        0.254780202192797    0.318838478689041    0.902043340372083  0.0000
  O2     O2        0.242736158965722    0.738018508449154    0.931545114400349  0.0000
