data_c00638.vasp
_audit_creation_method             Generated by GULP
_audit_author_name                 Salvador R. G. Balestra
_symmetry_space_group_name_H-M     'P 1             '
_symmetry_Int_Tables_number        1

loop_
_symmetry_equiv_pos_site_id
_symmetry_equiv_pos_as_xyz
_cell_length_a                       17.1764
_cell_length_b                        7.6551
_cell_length_c                       10.2305
_cell_angle_alpha                   90.5406
_cell_angle_beta                    89.8147
_cell_angle_gamma                   90.4008

loop_
_atom_site_label
_atom_site_type_symbol
_atom_site_fract_x
_atom_site_fract_y
_atom_site_fract_z
_atom_site_charge
  Ge     Ge        0.052090000000021    0.000000000000000    0.372269999999958  0.0000
  Ge     Ge        0.342896756479675    0.724307488192366    0.274230988550253  0.0000
  Ge     Ge        0.658732942267981    0.347285920845597    0.027558889853557  0.0000
  Ge     Ge        0.845394717769462    0.352120356585999    0.029553383395627  0.0000
  Si     Si        0.457854154179187    0.015265818181720    0.355090215174337  0.0000
  Si     Si        0.953802540495108    0.022786978847309    0.637648442012949  0.0000
  Si     Si        0.556565562223940    0.019717954580123    0.612157602634003  0.0000
  Si     Si        0.557622911116697    0.032648739680935    0.100832234595251  0.0000
  Si     Si        0.943446679468456    0.042189347286520    0.127675147488789  0.0000
  Si     Si        0.446077268864683    0.020236871963009    0.856178673013854  0.0000
  Si     Si        0.058282918114151    0.007596760123164    0.890590328924899  0.0000
  Si     Si        0.171068809094342    0.292119376254117    0.266467091290136  0.0000
  Si     Si        0.843760500239005    0.323767667155237    0.715687253236371  0.0000
  Si     Si        0.663727505002844    0.723790288525043    0.700119861931649  0.0000
  Si     Si        0.843261935099595    0.726558954732456    0.701225472283732  0.0000
  Si     Si        0.665127303641517    0.320103572279041    0.714532433181314  0.0000
  Si     Si        0.160429694854308    0.697393277697800    0.276443183540805  0.0000
  Si     Si        0.351167912257044    0.313542090846085    0.262673158671018  0.0000
  Si     Si        0.843217831515781    0.745753668732793    0.004074830542512  0.0000
  Si     Si        0.347863434202276    0.325510930890478    0.957877977366385  0.0000
  Si     Si        0.160623305790414    0.703082577592582    0.970411349066107  0.0000
  Si     Si        0.340905117360397    0.726463714920478    0.963048873715173  0.0000
  Si     Si        0.167646168000622    0.304873747810250    0.962885096106152  0.0000
  Si     Si        0.661740143848736    0.740982284008304    0.002479371066610  0.0000
  O3     O3        0.119710105850564    0.164198567955026    0.350497758932540  0.0000
  O3     O3        0.399766178276412    0.853977554486793    0.373600237738670  0.0000
  O2     O2        0.900259412376536    0.195534822318512    0.634685442666065  0.0000
  O2     O2        0.608510442081222    0.844181382668456    0.612883160605002  0.0000
  O2     O2        0.898808077201953    0.851008401359451    0.615103713113872  0.0000
  O2     O2        0.610091119726250    0.190201558597901    0.632594046160112  0.0000
  O3     O3        0.097506186146946    0.800657137363495    0.359825263054963  0.0000
  O2     O2        0.407465196870416    0.190962274244215    0.344461856075021  0.0000
  O3     O3        0.018939968784378    0.030188017490693    0.529077312837252  0.0000
  O2     O2        0.518933388042811    0.035693603894245    0.470733484099243  0.0000
  O3     O3        0.972261420688549    0.006925992684163    0.272191050734314  0.0000
  O2     O2        0.505243823694547    0.978306772486083    0.222251100717659  0.0000
  O2     O2        0.996259289430017    0.009926359229386    0.776705817784471  0.0000
  O2     O2        0.486621917460060    0.009499413792624    0.715977497703606  0.0000
  O3     O3        0.593226757463119    0.224015990413666    0.116470074957169  0.0000
  O2     O2        0.874295895446879    0.907532547033134    0.088800074804155  0.0000
  O2     O2        0.400479605468159    0.203976086443288    0.865488416287343  0.0000
  O2     O2        0.105802490918587    0.826399944785369    0.885150459402356  0.0000
  O2     O2        0.386885164379347    0.856957099970609    0.867827163234139  0.0000
  O2     O2        0.117205907708849    0.172047813658842    0.874652061593569  0.0000
  O2     O2        0.629992624787153    0.898919360368384    0.090157735808232  0.0000
  O3     O3        0.909014667064727    0.234376268063364    0.122227386779092  0.0000
  O2     O2        0.510016016393111    0.010379665840158    0.967746683596447  0.0000
  O2     O2        0.016111761798620    0.020037702548635    0.030092327139952  0.0000
  O2     O2        0.147279178445823    0.491208770321792    0.296621336169158  0.0000
  O3     O3        0.370744423414511    0.511269463582919    0.296549568189078  0.0000
  O2     O2        0.867954507785655    0.524567707134413    0.685022610069626  0.0000
  O2     O2        0.640368785145351    0.520082212227003    0.685025023091086  0.0000
  O2     O2        0.261998872287875    0.267562403139846    0.299745058821332  0.0000
  O3     O3        0.246999966939022    0.750105417479533    0.319161143915061  0.0000
  O2     O2        0.754649223619965    0.292066524981468    0.670187922207890  0.0000
  O2     O2        0.753699507502821    0.750605855690654    0.657547253535306  0.0000
  O2     O2        0.157313944278072    0.250033116034909    0.113394342003482  0.0000
  O3     O3        0.354592448096399    0.780816774411921    0.112155061252909  0.0000
  O3     O3        0.849735421635132    0.285124093140051    0.868047569290582  0.0000
  O2     O2        0.651926899531308    0.785717611119402    0.849636129448900  0.0000
  O2     O2        0.853798494286397    0.788453843690505    0.851201387370353  0.0000
  O3     O3        0.657103477867239    0.278493772310568    0.866066614064302  0.0000
  O2     O2        0.150309767720706    0.746371860370793    0.123613755754691  0.0000
  O2     O2        0.363811854639513    0.275888864479329    0.108055903114141  0.0000
  O3     O3        0.622441764410171    0.557815285621003    0.036358742637598  0.0000
  O3     O3        0.881941012904501    0.564352636456615    0.040056271720104  0.0000
  O2     O2        0.370212910161640    0.528278110249114    0.936708675095957  0.0000
  O2     O2        0.137432290031993    0.501690971917361    0.940718178223482  0.0000
  O1     O1        0.751693101760461    0.328125715163341    0.084098499675721  0.0000
  O2     O2        0.752360783658374    0.711491964536994    0.034261601856329  0.0000
  O2     O2        0.257828848518847    0.292125128632284    0.921905437903146  0.0000
  O2     O2        0.249625125044271    0.737593365857493    0.929282857077010  0.0000
