data_c00604.vasp
_audit_creation_method             Generated by GULP
_audit_author_name                 Salvador R. G. Balestra
_symmetry_space_group_name_H-M     'P 1             '
_symmetry_Int_Tables_number        1

loop_
_symmetry_equiv_pos_site_id
_symmetry_equiv_pos_as_xyz
_cell_length_a                       17.3243
_cell_length_b                        7.6702
_cell_length_c                       10.1748
_cell_angle_alpha                   89.6920
_cell_angle_beta                    89.9916
_cell_angle_gamma                   89.5882

loop_
_atom_site_label
_atom_site_type_symbol
_atom_site_fract_x
_atom_site_fract_y
_atom_site_fract_z
_atom_site_charge
  Ge     Ge        0.052090000000021    0.000000000000000    0.372269999999958  0.0000
  Ge     Ge        0.346877366320340    0.689334400565349    0.291466871647807  0.0000
  Ge     Ge        0.664835453217726    0.703771136315680    0.721466270281009  0.0000
  Ge     Ge        0.842812520677699    0.677464224213417    0.045643865336851  0.0000
  Si     Si        0.454156407046789    0.989312142794225    0.384859416755238  0.0000
  Si     Si        0.950852476279761    0.990320933201641    0.634134010949734  0.0000
  Si     Si        0.550701803952510    0.001756113716133    0.643709800387289  0.0000
  Si     Si        0.555834823266946    0.000110975612086    0.133741237954429  0.0000
  Si     Si        0.945741291315401    0.985026736551117    0.115758476252993  0.0000
  Si     Si        0.442070815626970    0.995002797765986    0.894336897344074  0.0000
  Si     Si        0.057089139518976    0.001677947696301    0.876781550427330  0.0000
  Si     Si        0.163156071066925    0.295039712332366    0.291031803740544  0.0000
  Si     Si        0.838998919631437    0.286454070511983    0.730662729737518  0.0000
  Si     Si        0.844224736696183    0.689242989616623    0.728547618961438  0.0000
  Si     Si        0.660993722105846    0.295082095376573    0.724521821052981  0.0000
  Si     Si        0.164680702445658    0.700030522983950    0.293961899198185  0.0000
  Si     Si        0.341770351921206    0.282536399188140    0.283359150270334  0.0000
  Si     Si        0.656898633146937    0.302395628361102    0.030370703642858  0.0000
  Si     Si        0.337048224809834    0.296094918537284    0.974870684894296  0.0000
  Si     Si        0.161311433269128    0.702276398974071    0.987538440928875  0.0000
  Si     Si        0.340461083542233    0.693773136708894    0.977098905604863  0.0000
  Si     Si        0.158308720032749    0.300621633419430    0.985883328647217  0.0000
  Si     Si        0.663109967860078    0.701993712703597    0.035855385912393  0.0000
  Si     Si        0.834824921646812    0.278071034484188    0.038708329475343  0.0000
  O3     O3        0.111683722194024    0.179106233207794    0.385113528719799  0.0000
  O3     O3        0.411774923334705    0.805459108475574    0.382029225770485  0.0000
  O2     O2        0.893402694429996    0.154526692959144    0.651963004163952  0.0000
  O3     O3        0.602424218446973    0.829817763669479    0.630428332726074  0.0000
  O2     O2        0.906907050178304    0.808315750815421    0.655219022088916  0.0000
  O2     O2        0.608419270712276    0.165556022933513    0.641324878524087  0.0000
  O3     O3        0.107790503872128    0.813351310422456    0.381667325791414  0.0000
  O2     O2        0.389878165887640    0.137052427616023    0.359887572798283  0.0000
  O3     O3        0.980294750570565    0.996653772297401    0.486556965145482  0.0000
  O2     O2        0.490275374496417    0.021166939730659    0.526739778928551  0.0000
  O3     O3        0.009050811624672    0.022937064951987    0.221348440641808  0.0000
  O2     O2        0.523022819208569    0.999110293952350    0.280096476583211  0.0000
  O2     O2        0.026031702720398    0.002493012435444    0.727891133927324  0.0000
  O2     O2        0.502968435356536    0.995356831466741    0.778332856851428  0.0000
  O2     O2        0.603279661368329    0.178336345975780    0.116922941134184  0.0000
  O3     O3        0.906669118949504    0.798146331146051    0.135563096678257  0.0000
  O2     O2        0.387044594337357    0.165842975198293    0.885341406008463  0.0000
  O2     O2        0.110361148393278    0.830861972261079    0.898236544487234  0.0000
  O2     O2        0.390244585069288    0.821178854631901    0.884378542176434  0.0000
  O2     O2        0.104889438013353    0.178977996127212    0.897261557284613  0.0000
  O2     O2        0.608854095195565    0.829176134869261    0.119909463129479  0.0000
  O2     O2        0.876411577385457    0.127069275651271    0.121635673211859  0.0000
  O2     O2        0.485787457907624    0.994686726020253    0.032403729832607  0.0000
  O2     O2        0.983574647601096    0.994000420068633    0.971085842664066  0.0000
  O2     O2        0.144737876589403    0.497552629433261    0.314870288629418  0.0000
  O3     O3        0.368440484447472    0.473180555868927    0.321990278216357  0.0000
  O2     O2        0.865966439368923    0.485003001103955    0.706207600108782  0.0000
  O3     O3        0.636364453266981    0.491456470353880    0.697524131848086  0.0000
  O2     O2        0.252612243893210    0.257103406611010    0.322567312000380  0.0000
  O3     O3        0.252457478949365    0.734837863266105    0.333424238804653  0.0000
  O2     O2        0.750546340722468    0.265508004737426    0.683537911594251  0.0000
  O3     O3        0.759516485164779    0.726068623162357    0.671227257798941  0.0000
  O2     O2        0.147132867744019    0.247861016440580    0.138156265397365  0.0000
  O3     O3        0.358120881209726    0.737170197116841    0.127055748391217  0.0000
  O2     O2        0.844056716094075    0.240305854255258    0.884135027176093  0.0000
  O3     O3        0.660841225074631    0.761451003770707    0.884852149925311  0.0000
  O3     O3        0.845353691182687    0.732542090096359    0.881789156438373  0.0000
  O2     O2        0.650330645949463    0.248297003670978    0.878475036006466  0.0000
  O2     O2        0.151174723071093    0.752354802535263    0.140378055804952  0.0000
  O2     O2        0.352029944637609    0.254645700645729    0.127443578879638  0.0000
  O2     O2        0.631082296034029    0.503480406399599    0.047242072490552  0.0000
  O3     O3        0.870363709456262    0.463617681330547    0.071645019372447  0.0000
  O2     O2        0.362779885887945    0.493842665348964    0.943730373297601  0.0000
  O2     O2        0.134493842827639    0.503128992235924    0.963668452116020  0.0000
  O2     O2        0.744803997234682    0.279590658377631    0.078315565331349  0.0000
  O3     O3        0.748420525356349    0.709210026903616    0.094431994650890  0.0000
  O2     O2        0.246846280053367    0.271734369264403    0.942387707406864  0.0000
  O2     O2        0.250127125072995    0.724259202610206    0.946824431330614  0.0000
