data_c00634.vasp
_audit_creation_method             Generated by GULP
_audit_author_name                 Salvador R. G. Balestra
_symmetry_space_group_name_H-M     'P 1             '
_symmetry_Int_Tables_number        1

loop_
_symmetry_equiv_pos_site_id
_symmetry_equiv_pos_as_xyz
_cell_length_a                       17.1792
_cell_length_b                        7.6286
_cell_length_c                       10.1814
_cell_angle_alpha                   90.3186
_cell_angle_beta                    89.8778
_cell_angle_gamma                   90.2596

loop_
_atom_site_label
_atom_site_type_symbol
_atom_site_fract_x
_atom_site_fract_y
_atom_site_fract_z
_atom_site_charge
  Ge     Ge        0.052090000000021    0.000000000000000    0.372269999999958  0.0000
  Ge     Ge        0.336493999965005    0.726384639289011    0.291877388338989  0.0000
  Ge     Ge        0.652340228269699    0.341078283158567    0.045670901592551  0.0000
  Ge     Ge        0.151698826047471    0.682824338300491    0.982639629512357  0.0000
  Si     Si        0.453930296075948    0.012916942108740    0.376558178717105  0.0000
  Si     Si        0.949381611471597    0.013468560821715    0.632183084246440  0.0000
  Si     Si        0.554250593585799    0.019696802060151    0.632812528931895  0.0000
  Si     Si        0.553216613809018    0.024939018278904    0.121513201048880  0.0000
  Si     Si        0.947705940929595    0.025902541791011    0.112298786522358  0.0000
  Si     Si        0.443718502374292    0.013934187541992    0.876255923944149  0.0000
  Si     Si        0.057663994342142    0.996546592593804    0.872084309649220  0.0000
  Si     Si        0.172445228828528    0.282336511171970    0.291413789616544  0.0000
  Si     Si        0.835625398855779    0.307065872942612    0.736186148852330  0.0000
  Si     Si        0.666806004629297    0.728857602542359    0.728798331895953  0.0000
  Si     Si        0.845538096295476    0.709072362861534    0.729801765762729  0.0000
  Si     Si        0.657898030708744    0.323903300676541    0.732046498131833  0.0000
  Si     Si        0.154654499382322    0.687309254684206    0.295246017201413  0.0000
  Si     Si        0.353159554192542    0.319096745874506    0.286948693344246  0.0000
  Si     Si        0.847211150141932    0.712924446823657    0.036467558096134  0.0000
  Si     Si        0.348776768345212    0.323039922716821    0.982874499140307  0.0000
  Si     Si        0.333653597643383    0.723266099743215    0.977865948544378  0.0000
  Si     Si        0.168474546517176    0.276949002557456    0.987313030676308  0.0000
  Si     Si        0.667602468756629    0.744079323225524    0.036141715555723  0.0000
  Si     Si        0.834141895429534    0.317487966985700    0.045658929864167  0.0000
  O3     O3        0.126665319275794    0.153586262454138    0.385826109804960  0.0000
  O3     O3        0.389865477155779    0.862858329563049    0.391816213278177  0.0000
  O2     O2        0.890933630496280    0.172845317901041    0.660903481500609  0.0000
  O2     O2        0.613533410419724    0.857303961760556    0.644296973283900  0.0000
  O2     O2        0.904421032999895    0.828240093776823    0.646963292923760  0.0000
  O2     O2        0.600143688786146    0.202905994828571    0.647032474396657  0.0000
  O3     O3        0.092591703090865    0.793985718769312    0.381347486569743  0.0000
  O2     O2        0.409908642989219    0.199106150523933    0.372479925725222  0.0000
  O3     O3        0.979616612179228    0.028590891171174    0.485676693758869  0.0000
  O2     O2        0.517980675090805    0.014477583196727    0.489000548092031  0.0000
  O3     O3        0.010814797659043    0.040907588837101    0.222354593977729  0.0000
  O2     O2        0.498016702103566    0.971447090669743    0.240351831715141  0.0000
  O2     O2        0.025605911227295    0.021583448781850    0.725040017060358  0.0000
  O2     O2        0.483293058644775    0.003679238353768    0.734520696115944  0.0000
  O3     O3        0.585149980874594    0.221388569217625    0.133705013555616  0.0000
  O2     O2        0.902973613416286    0.838630377511521    0.121179754219602  0.0000
  O2     O2        0.402182016633369    0.202948506938982    0.889887469447604  0.0000
  O3     O3        0.086131113595929    0.799149463230175    0.890767637435955  0.0000
  O2     O2        0.381769853074942    0.856198551772052    0.886401715617443  0.0000
  O2     O2        0.130975665206248    0.126236416281643    0.896497003362879  0.0000
  O2     O2        0.628580238353632    0.898972657051764    0.119029838239144  0.0000
  O2     O2        0.885561753179462    0.182190352202639    0.126999731322516  0.0000
  O2     O2        0.508750287330562    0.990734121950919    0.985955648201534  0.0000
  O2     O2        0.988586627939985    0.046232693220182    0.971102816023292  0.0000
  O2     O2        0.139647286379639    0.479159083976558    0.305968281296906  0.0000
  O3     O3        0.374119969239612    0.518893928620731    0.310938014422399  0.0000
  O2     O2        0.864708916914466    0.504565840612718    0.704981299977152  0.0000
  O2     O2        0.639067100696168    0.528488393858252    0.706516709416345  0.0000
  O2     O2        0.263746881732603    0.281684566879186    0.327761298571279  0.0000
  O3     O3        0.241123655762068    0.732003233381296    0.343830972485830  0.0000
  O2     O2        0.746713758645779    0.283772189083874    0.687945356773567  0.0000
  O2     O2        0.757059126550027    0.749164308645218    0.686140276525101  0.0000
  O2     O2        0.162129394701868    0.220348237420690    0.139824163096335  0.0000
  O3     O3        0.337705195971029    0.785185018652140    0.128483192100798  0.0000
  O2     O2        0.835864173388298    0.270565893626493    0.891143354924196  0.0000
  O2     O2        0.659386734870155    0.780718956447908    0.881099155467158  0.0000
  O2     O2        0.857802539326205    0.755909050231957    0.882722623316072  0.0000
  O3     O3        0.644799780239196    0.278820641201556    0.883224322721057  0.0000
  O3     O3        0.144544381574859    0.746686145021193    0.144599756884820  0.0000
  O2     O2        0.364702266078882    0.268446949647498    0.133249078732911  0.0000
  O3     O3        0.629126458701069    0.558550095030018    0.068216045764806  0.0000
  O2     O2        0.869905992997973    0.512646248185840    0.066815299484394  0.0000
  O2     O2        0.370239505006652    0.527380956408892    0.964088309906640  0.0000
  O3     O3        0.128483352707567    0.462854282993663    0.965176208987113  0.0000
  O3     O3        0.746694317933133    0.308428150356469    0.097162553170786  0.0000
  O2     O2        0.757955447214457    0.742264464434209    0.077059865506767  0.0000
  O2     O2        0.258842444475243    0.293352468312213    0.946580683408083  0.0000
  O3     O3        0.245554073682106    0.719284182502639    0.928972623689689  0.0000
