data_c00691.vasp
_audit_creation_method             Generated by GULP
_audit_author_name                 Salvador R. G. Balestra
_symmetry_space_group_name_H-M     'P 1             '
_symmetry_Int_Tables_number        1

loop_
_symmetry_equiv_pos_site_id
_symmetry_equiv_pos_as_xyz
_cell_length_a                       17.1793
_cell_length_b                        7.6146
_cell_length_c                       10.2759
_cell_angle_alpha                   89.6098
_cell_angle_beta                    90.3500
_cell_angle_gamma                   90.1353

loop_
_atom_site_label
_atom_site_type_symbol
_atom_site_fract_x
_atom_site_fract_y
_atom_site_fract_z
_atom_site_charge
  Ge     Ge        0.052090000000021    0.000000000000000    0.372269999999958  0.0000
  Ge     Ge        0.842267651341928    0.317949636149459    0.713845268573427  0.0000
  Ge     Ge        0.824622421349944    0.707714122195063    0.037915745546909  0.0000
  Ge     Ge        0.341241600242704    0.665499278962654    0.961805576540595  0.0000
  Si     Si        0.451477250720124    0.988640882580827    0.361485033966316  0.0000
  Si     Si        0.946201853253379    0.011549500702644    0.627775086943803  0.0000
  Si     Si        0.543789639219860    0.000643444594213    0.628321038486773  0.0000
  Si     Si        0.550311154789866    0.982416882276815    0.106920267430362  0.0000
  Si     Si        0.937357977161771    0.993371439735779    0.120851055762334  0.0000
  Si     Si        0.435144360946339    0.982819102192985    0.868705578915434  0.0000
  Si     Si        0.045201623018090    0.985685663899516    0.883417898650149  0.0000
  Si     Si        0.157290623673205    0.306982272804006    0.296219995359277  0.0000
  Si     Si        0.349167580333727    0.682392173969099    0.270142704945199  0.0000
  Si     Si        0.649443885101717    0.692324688249435    0.724020256783255  0.0000
  Si     Si        0.826654527268477    0.732041007301885    0.729780235194078  0.0000
  Si     Si        0.660154815794116    0.291008293367155    0.708549077632724  0.0000
  Si     Si        0.169467895084523    0.710925937804700    0.282045667967393  0.0000
  Si     Si        0.336123125580529    0.277982205261552    0.279077705931715  0.0000
  Si     Si        0.662449613835461    0.271937173747584    0.013625423147352  0.0000
  Si     Si        0.324086155552209    0.260130565227358    0.975293446162642  0.0000
  Si     Si        0.157749909897309    0.695699305859148    0.979326119950845  0.0000
  Si     Si        0.144496045392240    0.293745239904929    0.995015102794464  0.0000
  Si     Si        0.644522075492019    0.664956641283397    0.029839734081272  0.0000
  Si     Si        0.842931123000765    0.303946485688416    0.020563242682224  0.0000
  O3     O3        0.101324550323276    0.197452235443833    0.388774817564926  0.0000
  O2     O2        0.407607977521431    0.801616015479287    0.354533928126868  0.0000
  O3     O3        0.909421022083323    0.204933191426419    0.623317777652577  0.0000
  O2     O2        0.588512848809889    0.817832179622713    0.651497764408094  0.0000
  O2     O2        0.875168507576520    0.876550674313222    0.650349231071443  0.0000
  O2     O2        0.604261784755616    0.162213166919486    0.628013434175261  0.0000
  O3     O3        0.122168184956772    0.837679128377741    0.373037221789034  0.0000
  O2     O2        0.388864652020666    0.146252031172653    0.363507721090198  0.0000
  O3     O3        0.985631315900059    0.967891516838224    0.492373766740056  0.0000
  O2     O2        0.502414271961111    0.993482515623032    0.490318670599918  0.0000
  O3     O3        0.002846263300721    0.991171920547077    0.227631720818922  0.0000
  O2     O2        0.509370083265038    0.017370682552580    0.242140409815794  0.0000
  O2     O2        0.013468540504024    0.994224728702858    0.737081837310865  0.0000
  O2     O2        0.477865988797198    0.031100933109960    0.735712084849093  0.0000
  O2     O2        0.622474930496586    0.116745560209764    0.094659547768636  0.0000
  O3     O3        0.873018310126612    0.844026859937710    0.143236403977082  0.0000
  O2     O2        0.360120177074796    0.107398224174765    0.888119086931168  0.0000
  O2     O2        0.106330863316271    0.826416517723073    0.891795879469254  0.0000
  O3     O3        0.403508454204910    0.785454878311541    0.865167796687165  0.0000
  O2     O2        0.084875620271638    0.172855327281787    0.915800574458933  0.0000
  O2     O2        0.580767364768255    0.781649057443634    0.103862308283124  0.0000
  O2     O2        0.894926683853048    0.182243223370709    0.115188239916816  0.0000
  O2     O2        0.492504415610761    0.020717764622632    0.988385736105312  0.0000
  O2     O2        0.974930546221484    0.945849759756213    0.980946381208494  0.0000
  O2     O2        0.140995360412843    0.512788406141004    0.311653813552678  0.0000
  O2     O2        0.366959274114698    0.476865294013386    0.296166910352035  0.0000
  O3     O3        0.861552403150946    0.540119554694952    0.706727892716100  0.0000
  O2     O2        0.629434610179499    0.490540271723364    0.690466194121517  0.0000
  O2     O2        0.247457396406201    0.264425284614809    0.328511103124630  0.0000
  O2     O2        0.261179908258977    0.726514588637955    0.312043828713206  0.0000
  O3     O3        0.748147737855114    0.279203726076213    0.660290429913432  0.0000
  O2     O2        0.737061119611744    0.735444101296958    0.677944426704821  0.0000
  O2     O2        0.137963156193712    0.247498720515089    0.147909491104651  0.0000
  O3     O3        0.360914723502504    0.727839484910188    0.119716765317074  0.0000
  O3     O3        0.854365148359181    0.246741570337327    0.872434857779705  0.0000
  O2     O2        0.643880578988721    0.722434189057831    0.878363499433164  0.0000
  O3     O3        0.826669781740407    0.783487149302897    0.879951662903439  0.0000
  O2     O2        0.658302039911545    0.233383928379856    0.860079815471008  0.0000
  O2     O2        0.155457741739136    0.757159024037793    0.129662610720886  0.0000
  O2     O2        0.339442692431956    0.223450725101832    0.128209179024064  0.0000
  O2     O2        0.621463510994086    0.458967066957384    0.043751032634757  0.0000
  O3     O3        0.867400383051073    0.503000170258454    0.042910686384126  0.0000
  O3     O3        0.360365313208160    0.446447322926188    0.937509288161200  0.0000
  O2     O2        0.123477821333868    0.497552593287625    0.968617058531969  0.0000
  O2     O2        0.751992161993705    0.282228555560277    0.057813329222250  0.0000
  O3     O3        0.729184056886838    0.696276181566322    0.088787951239328  0.0000
  O2     O2        0.231864636855797    0.259337487169526    0.946716435193359  0.0000
  O3     O3        0.244561746467674    0.702170868137477    0.926565444876976  0.0000
