data_c00693.vasp
_audit_creation_method             Generated by GULP
_audit_author_name                 Salvador R. G. Balestra
_symmetry_space_group_name_H-M     'P 1             '
_symmetry_Int_Tables_number        1

loop_
_symmetry_equiv_pos_site_id
_symmetry_equiv_pos_as_xyz
_cell_length_a                       17.1629
_cell_length_b                        7.6253
_cell_length_c                       10.2715
_cell_angle_alpha                   88.6771
_cell_angle_beta                    90.1300
_cell_angle_gamma                   90.7837

loop_
_atom_site_label
_atom_site_type_symbol
_atom_site_fract_x
_atom_site_fract_y
_atom_site_fract_z
_atom_site_charge
  Ge     Ge        0.052090000000021    0.000000000000000    0.372269999999958  0.0000
  Ge     Ge        0.843712681586633    0.322414460966993    0.710312561143927  0.0000
  Ge     Ge        0.829205922273496    0.690217324900117    0.045951006502370  0.0000
  Ge     Ge        0.644375798506447    0.655054923116969    0.036583172289936  0.0000
  Si     Si        0.452968987905953    0.002718021720931    0.362204543405396  0.0000
  Si     Si        0.948028949981721    0.019706617744041    0.629031384723279  0.0000
  Si     Si        0.546016032887487    0.003587009537851    0.628245828508709  0.0000
  Si     Si        0.552104452444797    0.974931898887092    0.112273385228751  0.0000
  Si     Si        0.940211929633460    0.986644840639334    0.119041652586444  0.0000
  Si     Si        0.436901930856862    0.005155361092053    0.873805349394523  0.0000
  Si     Si        0.050055969815965    0.997568488498297    0.880365805756283  0.0000
  Si     Si        0.160605089795177    0.306559533457893    0.293902194882374  0.0000
  Si     Si        0.347392789310039    0.697450004213275    0.270219601846641  0.0000
  Si     Si        0.650893909577110    0.697840503007995    0.725734726782797  0.0000
  Si     Si        0.828798542089159    0.733140052338416    0.736089480725430  0.0000
  Si     Si        0.661267148611633    0.295725514608323    0.704691819860029  0.0000
  Si     Si        0.167109482188465    0.712065550279620    0.283360977112009  0.0000
  Si     Si        0.339987428773035    0.294112142339202    0.278091377033369  0.0000
  Si     Si        0.662573485178141    0.260731387506453    0.008405678063873  0.0000
  Si     Si        0.330210864505496    0.292273009322803    0.974360883749830  0.0000
  Si     Si        0.158603973683601    0.706966730633485    0.982002787049589  0.0000
  Si     Si        0.339286527868371    0.692222823628159    0.967975978022767  0.0000
  Si     Si        0.150257890689260    0.303646666461232    0.991716419723677  0.0000
  Si     Si        0.844032305182341    0.294517849398666    0.015787796822986  0.0000
  O3     O3        0.106102764881327    0.192000123392010    0.387716328780525  0.0000
  O2     O2        0.405516032529198    0.820118571164864    0.349850619487850  0.0000
  O3     O3        0.910800096267885    0.211486687968047    0.619663215617583  0.0000
  O2     O2        0.593162439660519    0.823981663238118    0.645206800818043  0.0000
  O2     O2        0.877909954986511    0.884052961209511    0.661427484248874  0.0000
  O2     O2        0.605017968425969    0.170124100241119    0.622085596447977  0.0000
  O3     O3        0.117634930116813    0.829821242643575    0.375614545882751  0.0000
  O2     O2        0.393816035402748    0.164934004720962    0.362315237121198  0.0000
  O3     O3        0.984520331749424    0.971656775211614    0.492264410359120  0.0000
  O2     O2        0.499968466361621    0.996493431358241    0.494570953102489  0.0000
  O3     O3        0.004875255924494    0.008312516149412    0.225862613219499  0.0000
  O2     O2        0.514220409695950    0.031473633907372    0.246262168667774  0.0000
  O2     O2        0.017993636290518    0.009154080061453    0.734178355403208  0.0000
  O2     O2        0.482767338965688    0.027259624692114    0.740447953618608  0.0000
  O2     O2        0.631012944712655    0.090544459548329    0.087680721124261  0.0000
  O3     O3        0.884619756352446    0.820323169693722    0.146037807204934  0.0000
  O2     O2        0.374726781830782    0.160787719170008    0.882435847078327  0.0000
  O2     O2        0.110379180195824    0.837367504188240    0.889191817860750  0.0000
  O2     O2        0.391829364986076    0.817416539794312    0.875385640898023  0.0000
  O2     O2        0.091597788923481    0.183143030636656    0.910908656897061  0.0000
  O3     O3        0.575801181187844    0.773737664853873    0.119013988435080  0.0000
  O2     O2        0.887023222871435    0.159423037176454    0.112474518051951  0.0000
  O2     O2        0.494843584495295    0.021478416964245    0.994069752850878  0.0000
  O2     O2        0.979624599516199    0.956372849986324    0.978357556684058  0.0000
  O2     O2        0.143946805482801    0.510361940371062    0.313680574987789  0.0000
  O2     O2        0.366150718741502    0.494661278099773    0.302722791530654  0.0000
  O3     O3        0.864509155932435    0.544366237189842    0.708140701126178  0.0000
  O2     O2        0.630482617071528    0.495103445024752    0.694748363818285  0.0000
  O2     O2        0.250986738651809    0.265693101686225    0.323270786826583  0.0000
  O2     O2        0.259043177247537    0.740809684352728    0.308492836521133  0.0000
  O3     O3        0.749474754338239    0.289068605658350    0.655147589768614  0.0000
  O2     O2        0.739949029855969    0.737529641639243    0.681909145212945  0.0000
  O2     O2        0.141454172876852    0.255712939098632    0.144500392954483  0.0000
  O2     O2        0.360020088624177    0.737206439919289    0.116828308751691  0.0000
  O3     O3        0.855976155514441    0.241626494646488    0.867641946581464  0.0000
  O3     O3        0.641275551340425    0.732046972002026    0.877073133245896  0.0000
  O3     O3        0.825676093011882    0.771531003465143    0.887756590460964  0.0000
  O2     O2        0.659353790733153    0.226363307467253    0.854307610307611  0.0000
  O2     O2        0.147878312967713    0.760526910805499    0.132060915354499  0.0000
  O2     O2        0.347464346006966    0.249464194872946    0.125924546112480  0.0000
  O3     O3        0.616864383755163    0.435358445325873    0.042045660146365  0.0000
  O3     O3        0.874154539299032    0.488750515023745    0.043112231980124  0.0000
  O2     O2        0.358589952533799    0.490677846630588    0.939382098412182  0.0000
  O2     O2        0.128918487822303    0.506972465548654    0.963599417029341  0.0000
  O2     O2        0.751835904349199    0.297733811184607    0.048279594066238  0.0000
  O1     O1        0.735345929216429    0.682929329783918    0.101034845821858  0.0000
  O2     O2        0.238386846871031    0.270314260486022    0.946500946421897  0.0000
  O2     O2        0.248557848256842    0.726097660704248    0.941088712532704  0.0000
