data_c00657.vasp
_audit_creation_method             Generated by GULP
_audit_author_name                 Salvador R. G. Balestra
_symmetry_space_group_name_H-M     'P 1             '
_symmetry_Int_Tables_number        1

loop_
_symmetry_equiv_pos_site_id
_symmetry_equiv_pos_as_xyz
_cell_length_a                       17.1895
_cell_length_b                        7.6648
_cell_length_c                       10.2373
_cell_angle_alpha                   89.2178
_cell_angle_beta                    89.8281
_cell_angle_gamma                   89.9638

loop_
_atom_site_label
_atom_site_type_symbol
_atom_site_fract_x
_atom_site_fract_y
_atom_site_fract_z
_atom_site_charge
  Ge     Ge        0.052090000000021    0.000000000000000    0.372269999999958  0.0000
  Ge     Ge        0.342007473352367    0.725341695294959    0.282632363342099  0.0000
  Ge     Ge        0.172702508156811    0.303886768316951    0.964725479098097  0.0000
  Ge     Ge        0.672257065140263    0.722803677172870    0.023969618883769  0.0000
  Si     Si        0.455722578296079    0.016850694700481    0.364696412612025  0.0000
  Si     Si        0.951571124846963    0.006864984488866    0.637803272333449  0.0000
  Si     Si        0.556064836321774    0.021967372295953    0.620468677322473  0.0000
  Si     Si        0.561052712121001    0.009641614452971    0.111678123882746  0.0000
  Si     Si        0.948390121378489    0.006866364695486    0.118599704852481  0.0000
  Si     Si        0.451549272312897    0.017542619185757    0.870644280269249  0.0000
  Si     Si        0.060954210343631    0.016448635621223    0.884096710621745  0.0000
  Si     Si        0.170949156634612    0.290457228447172    0.272331328682510  0.0000
  Si     Si        0.839490580223436    0.302947315235250    0.710243133207679  0.0000
  Si     Si        0.667289513023361    0.725871539557309    0.713197346960380  0.0000
  Si     Si        0.845038461871498    0.701011313038320    0.708048801658632  0.0000
  Si     Si        0.660189010383234    0.321853971231285    0.715696679327651  0.0000
  Si     Si        0.159605818579817    0.697503393685786    0.276392544157901  0.0000
  Si     Si        0.349614203968625    0.318369155698813    0.278120557636351  0.0000
  Si     Si        0.658374283179307    0.321078470506335    0.019129999907025  0.0000
  Si     Si        0.853205582333756    0.693857548982069    0.016763968824372  0.0000
  Si     Si        0.354726621062482    0.329758758439398    0.970628654555661  0.0000
  Si     Si        0.161527444511290    0.708254881801921    0.973892692070072  0.0000
  Si     Si        0.342559259006719    0.728671473017615    0.972020372752691  0.0000
  Si     Si        0.839309611266561    0.299568859911852    0.015716709077772  0.0000
  O3     O3        0.118359226360158    0.167721282615670    0.361348391582550  0.0000
  O3     O3        0.398264138381443    0.854428420815762    0.379933904037528  0.0000
  O2     O2        0.891674299436339    0.169917248274880    0.628168780114858  0.0000
  O2     O2        0.612807153448188    0.854829366303434    0.629145506701226  0.0000
  O2     O2        0.902557777208090    0.827394354603221    0.627573174937697  0.0000
  O2     O2        0.604128398571028    0.201582976887614    0.631220394641408  0.0000
  O3     O3        0.097216159516177    0.800064884099338    0.360244430886525  0.0000
  O2     O2        0.404369869727037    0.192148620215820    0.362879373866563  0.0000
  O3     O3        0.014860674454928    0.018114075407666    0.527035426937208  0.0000
  O2     O2        0.517930538681461    0.022709475022284    0.479065530840407  0.0000
  O3     O3        0.975130685369439    0.015225768785395    0.266127764028598  0.0000
  O2     O2        0.500710046389951    0.000968962028146    0.228425979319552  0.0000
  O2     O2        0.995361178918867    0.009643798198554    0.775790730100782  0.0000
  O2     O2        0.487570366541109    0.012379693029895    0.726864979419959  0.0000
  O2     O2        0.604815105020142    0.195708946951338    0.107524229530161  0.0000
  O2     O2        0.916554689016850    0.813774076841263    0.086565612219157  0.0000
  O2     O2        0.416198563132316    0.209882594132274    0.894391378417426  0.0000
  O2     O2        0.109114248343340    0.835597875026976    0.885372492640848  0.0000
  O2     O2        0.385558162830777    0.868281397104251    0.878257277050419  0.0000
  O3     O3        0.120565952250173    0.173445430471991    0.861527688895714  0.0000
  O3     O3        0.624277354269590    0.859275383304048    0.127431610723742  0.0000
  O2     O2        0.881582115751331    0.152190923793268    0.100562350879723  0.0000
  O2     O2        0.517581329159278    0.972097297767715    0.975742060172011  0.0000
  O2     O2        0.021121807280555    0.051019035013700    0.024805786175072  0.0000
  O2     O2        0.143107534589346    0.490949557898360    0.282663651902759  0.0000
  O3     O3        0.373129635830077    0.513866612274774    0.306764352394116  0.0000
  O2     O2        0.867129293298850    0.500519041184415    0.677923353120697  0.0000
  O2     O2        0.639390907932075    0.525783933831264    0.694836878184941  0.0000
  O2     O2        0.260500944711928    0.280169926725947    0.319456548786712  0.0000
  O3     O3        0.245503976591908    0.740454428256467    0.326820841607139  0.0000
  O2     O2        0.748939633886344    0.284219105986844    0.672447466563383  0.0000
  O2     O2        0.756662677536868    0.741022840921113    0.664215279352374  0.0000
  O3     O3        0.165195128296066    0.229074426872149    0.123762484303748  0.0000
  O3     O3        0.352506729402072    0.785722983827647    0.120512265863620  0.0000
  O2     O2        0.849365871875460    0.257675500701432    0.863196169658975  0.0000
  O3     O3        0.662893987555214    0.783019957360273    0.862248511693619  0.0000
  O2     O2        0.852332376118595    0.734946102132563    0.862060462328312  0.0000
  O2     O2        0.647998517550442    0.270706334234261    0.867409687173819  0.0000
  O2     O2        0.152505342281013    0.762096426789453    0.125360930116910  0.0000
  O2     O2        0.357703182548466    0.279753830612981    0.123875120550164  0.0000
  O3     O3        0.633561563024304    0.516597906566847    0.044457642647373  0.0000
  O2     O2        0.875404725558817    0.490535261712121    0.043637820482171  0.0000
  O2     O2        0.377508716457917    0.534109923935337    0.951638114170177  0.0000
  O3     O3        0.135486934906086    0.512337389056014    0.951061917628571  0.0000
  O2     O2        0.749014547197443    0.297989373243130    0.056299762016851  0.0000
  O3     O3        0.768150361029318    0.729890503068731    0.071706452808774  0.0000
  O3     O3        0.268987491902301    0.298685782713884    0.916932558842291  0.0000
  O2     O2        0.251893971173246    0.727398761214412    0.933255794581312  0.0000
