data_c00658.vasp
_audit_creation_method             Generated by GULP
_audit_author_name                 Salvador R. G. Balestra
_symmetry_space_group_name_H-M     'P 1             '
_symmetry_Int_Tables_number        1

loop_
_symmetry_equiv_pos_site_id
_symmetry_equiv_pos_as_xyz
_cell_length_a                       17.2143
_cell_length_b                        7.6077
_cell_length_c                       10.1985
_cell_angle_alpha                   88.9657
_cell_angle_beta                    91.2053
_cell_angle_gamma                   89.2663

loop_
_atom_site_label
_atom_site_type_symbol
_atom_site_fract_x
_atom_site_fract_y
_atom_site_fract_z
_atom_site_charge
  Ge     Ge        0.052090000000021    0.000000000000000    0.372269999999958  0.0000
  Ge     Ge        0.353807465688800    0.674784727613193    0.292751499008362  0.0000
  Ge     Ge        0.146808354779694    0.342702099365423    0.973030494692378  0.0000
  Ge     Ge        0.846703806359177    0.325324415868258    0.040015826420961  0.0000
  Si     Si        0.454574784379591    0.983557608404269    0.375475057968242  0.0000
  Si     Si        0.945396143577897    0.010009318815336    0.626388134480047  0.0000
  Si     Si        0.547585751657169    0.013419490323330    0.639220102035395  0.0000
  Si     Si        0.554666124618889    0.008868733752758    0.125521249988937  0.0000
  Si     Si        0.945940263573705    0.007344939372774    0.115314702331503  0.0000
  Si     Si        0.438725471330587    0.014758326759004    0.886341905193794  0.0000
  Si     Si        0.052063515448456    0.031135804641082    0.872486281518519  0.0000
  Si     Si        0.155467531864811    0.309283178805782    0.281804326011593  0.0000
  Si     Si        0.841930475531478    0.313620178970775    0.726773906891788  0.0000
  Si     Si        0.653961788124953    0.704136486165856    0.716576990009335  0.0000
  Si     Si        0.831941654009353    0.719568388616282    0.721337551887916  0.0000
  Si     Si        0.663444087757731    0.299609720798343    0.724737863066268  0.0000
  Si     Si        0.171384800610123    0.715737935216670    0.298193410279235  0.0000
  Si     Si        0.333498487898139    0.268366729102165    0.271791398193526  0.0000
  Si     Si        0.664324435483313    0.301018704659164    0.032303403829047  0.0000
  Si     Si        0.831008342632109    0.728945229067613    0.028991547939403  0.0000
  Si     Si        0.327754763898490    0.307260474986198    0.962544540275327  0.0000
  Si     Si        0.165052690810072    0.748640712590103    0.994072312225485  0.0000
  Si     Si        0.345298215428908    0.702172375059212    0.981857404342914  0.0000
  Si     Si        0.652320003285562    0.699747666193394    0.022316199557874  0.0000
  O3     O3        0.098557220292144    0.199418680060966    0.372022354670766  0.0000
  O3     O3        0.422169470420239    0.787800752319446    0.382402050487470  0.0000
  O2     O2        0.899602107449839    0.194308277973317    0.643137418301032  0.0000
  O2     O2        0.594267810608316    0.827755424411154    0.632689921003547  0.0000
  O2     O2        0.886197690655638    0.848673823787821    0.640376326831721  0.0000
  O2     O2        0.609337294529148    0.170570692037334    0.642536345945791  0.0000
  O3     O3        0.120983841301107    0.833711544089523    0.392925619261046  0.0000
  O2     O2        0.380036700345659    0.107246913922829    0.339991809814259  0.0000
  O3     O3        0.979541213937835    0.002986528765774    0.483847442685499  0.0000
  O2     O2        0.492117633043663    0.038148433328761    0.513143887446886  0.0000
  O3     O3        0.005754348152093    0.950195607925320    0.226379257489181  0.0000
  O2     O2        0.521209929919852    0.006887545471371    0.269634197319478  0.0000
  O2     O2        0.018721050825492    0.991026955385394    0.727782941577554  0.0000
  O2     O2        0.494004117933451    0.021534394858055    0.764346334877470  0.0000
  O2     O2        0.615648456728200    0.165771739072162    0.117837498965840  0.0000
  O2     O2        0.871021478055313    0.881172292497340    0.110989935507654  0.0000
  O2     O2        0.375594312185374    0.172871453014178    0.874265127137653  0.0000
  O2     O2        0.126373783621088    0.905569652529735    0.907222107598430  0.0000
  O2     O2        0.395693885784396    0.827872296686230    0.888959361589032  0.0000
  O3     O3        0.080451147692312    0.230605965251071    0.878433156322253  0.0000
  O2     O2        0.595520274397399    0.820832406045630    0.103925297386366  0.0000
  O3     O3        0.912336668674479    0.203139651115717    0.134032612876149  0.0000
  O2     O2        0.486689211913346    0.045237504882746    0.019691702296849  0.0000
  O2     O2        0.984992058684422    0.991944810453432    0.974174520715731  0.0000
  O2     O2        0.140720540419057    0.516347444861211    0.300299621862305  0.0000
  O3     O3        0.371667064438544    0.451553034472398    0.308919723303788  0.0000
  O2     O2        0.859796755210396    0.519083658308385    0.699141772085091  0.0000
  O2     O2        0.635316079017037    0.499802166144342    0.693624930260869  0.0000
  O2     O2        0.245001110061314    0.262035813906016    0.320968314366341  0.0000
  O3     O3        0.260749767580100    0.717798064020236    0.343391665077582  0.0000
  O2     O2        0.752802850173498    0.274833470325985    0.683735846093344  0.0000
  O2     O2        0.742058595117971    0.743665990464222    0.674069305904038  0.0000
  O3     O3        0.137993196007493    0.261548803898683    0.131294631162672  0.0000
  O3     O3        0.364956647605218    0.742323814169208    0.131657183791317  0.0000
  O3     O3        0.856407684041322    0.267481090680390    0.878261403759652  0.0000
  O2     O2        0.643007493537882    0.749805408966470    0.868792994229887  0.0000
  O2     O2        0.838017851295742    0.765335887417148    0.873822813303371  0.0000
  O2     O2        0.658706135484109    0.252742715567214    0.878924900978329  0.0000
  O2     O2        0.163103759371461    0.793065452724618    0.148645833337898  0.0000
  O2     O2        0.330114199981918    0.247100172034816    0.114955200722563  0.0000
  O2     O2        0.629703839067240    0.497900577236150    0.049551303576090  0.0000
  O3     O3        0.869773311182093    0.541971202099528    0.064021722657125  0.0000
  O2     O2        0.365723283031385    0.500175606832242    0.948886861710786  0.0000
  O3     O3        0.123878083036997    0.564881811722505    0.967143945721505  0.0000
  O3     O3        0.752090606231635    0.290796757013193    0.083625588112181  0.0000
  O2     O2        0.740966671555396    0.727954232862790    0.068431443566759  0.0000
  O3     O3        0.239115998532622    0.312344176829240    0.914345888445171  0.0000
  O2     O2        0.254140014893930    0.734070165932025    0.951513517168606  0.0000
