data_c00603.vasp
_audit_creation_method             Generated by GULP
_audit_author_name                 Salvador R. G. Balestra
_symmetry_space_group_name_H-M     'P 1             '
_symmetry_Int_Tables_number        1

loop_
_symmetry_equiv_pos_site_id
_symmetry_equiv_pos_as_xyz
_cell_length_a                       17.2557
_cell_length_b                        7.6636
_cell_length_c                       10.2026
_cell_angle_alpha                   90.2428
_cell_angle_beta                    89.7420
_cell_angle_gamma                   90.8804

loop_
_atom_site_label
_atom_site_type_symbol
_atom_site_fract_x
_atom_site_fract_y
_atom_site_fract_z
_atom_site_charge
  Ge     Ge        0.052090000000021    0.000000000000000    0.372269999999958  0.0000
  Ge     Ge        0.342341873052676    0.723302533677331    0.283622786685648  0.0000
  Ge     Ge        0.661404577518576    0.697509599881625    0.704356200830289  0.0000
  Ge     Ge        0.671651772139312    0.302052681896369    0.027767382046261  0.0000
  Si     Si        0.455688702810131    0.017169707005315    0.363000247376706  0.0000
  Si     Si        0.957747079665178    0.016109553358862    0.643289344736990  0.0000
  Si     Si        0.557161414923872    0.000993365261573    0.615292601922458  0.0000
  Si     Si        0.561235079765030    0.006190459246181    0.111608083349482  0.0000
  Si     Si        0.947006389505114    0.029728472144996    0.124242774133149  0.0000
  Si     Si        0.452096674254425    0.025443235114320    0.866564475363467  0.0000
  Si     Si        0.063964062349979    0.003185138997414    0.893655660228628  0.0000
  Si     Si        0.170861254837507    0.294511102074183    0.270358728069244  0.0000
  Si     Si        0.850242953802148    0.320488387718359    0.715793167788006  0.0000
  Si     Si        0.842872584200546    0.718589033551795    0.703492868326181  0.0000
  Si     Si        0.672579208267178    0.285886931988359    0.717641045508952  0.0000
  Si     Si        0.161481418793039    0.698659665559794    0.277104077229595  0.0000
  Si     Si        0.350306740766927    0.314116602571951    0.271707112082714  0.0000
  Si     Si        0.839712108762713    0.731119445563384    0.011742944118661  0.0000
  Si     Si        0.350264022319076    0.323696889402811    0.965942630329067  0.0000
  Si     Si        0.167942808166157    0.703539826989534    0.969467813182555  0.0000
  Si     Si        0.346453829419581    0.724438414501656    0.970710908491890  0.0000
  Si     Si        0.170861877972568    0.305576719342912    0.965752356633666  0.0000
  Si     Si        0.660509742308959    0.706286285703530    0.013510135320549  0.0000
  Si     Si        0.852220818835977    0.338379663419743    0.024303812269482  0.0000
  O3     O3        0.119498568255487    0.165852162568174    0.354916564586981  0.0000
  O3     O3        0.398395469495771    0.854094076118064    0.383400408906604  0.0000
  O2     O2        0.908077584130642    0.193197392680188    0.639751352873903  0.0000
  O3     O3        0.595687531677241    0.812348628237477    0.613934623043809  0.0000
  O2     O2        0.899768072505980    0.849720706143968    0.625497468499634  0.0000
  O2     O2        0.625530496979580    0.143828630368155    0.632910649546473  0.0000
  O3     O3        0.096188181381030    0.801495273017446    0.353222934834295  0.0000
  O2     O2        0.404953326647353    0.191190317852306    0.355732551102057  0.0000
  O3     O3        0.020951054137507    0.017414490520105    0.531589175469316  0.0000
  O2     O2        0.517752794221377    0.037515523849804    0.476973448532347  0.0000
  O3     O3        0.972211084761494    0.017131380282969    0.273211216359436  0.0000
  O2     O2        0.500272741306044    0.985371241686005    0.227165573274900  0.0000
  O2     O2        0.000458971264878    0.001359682621983    0.782056693942359  0.0000
  O2     O2        0.490551425298659    0.017674546904454    0.724545690113779  0.0000
  O3     O3        0.618976569431106    0.169179963140486    0.131158561782304  0.0000
  O2     O2        0.883049264944703    0.881035793170877    0.092962953916447  0.0000
  O2     O2        0.402083832565867    0.201521714543460    0.874350739614794  0.0000
  O2     O2        0.114503813007045    0.828154756649756    0.883637051142533  0.0000
  O2     O2        0.398291932783958    0.853423672362340    0.882234685655335  0.0000
  O2     O2        0.119826915496783    0.173428361790108    0.877755968793350  0.0000
  O2     O2        0.609750138531655    0.828716655190711    0.106900612165192  0.0000
  O2     O2        0.913028618349444    0.221850810932955    0.101511397498511  0.0000
  O2     O2        0.518525328854441    0.036757721962275    0.974359523908760  0.0000
  O2     O2        0.022893221728514    0.004178737541981    0.035149717540842  0.0000
  O2     O2        0.146647392547538    0.492886990522496    0.298117208101649  0.0000
  O3     O3        0.370676617286165    0.511292388151793    0.306169589978720  0.0000
  O2     O2        0.872767111662939    0.520878854653489    0.682795436929622  0.0000
  O3     O3        0.639620501424943    0.477356269124946    0.695852632958402  0.0000
  O2     O2        0.260864186355487    0.271205790567825    0.307063070167210  0.0000
  O3     O3        0.246721811289295    0.749279261193815    0.327418219603939  0.0000
  O2     O2        0.762306394393699    0.283193725320065    0.669868417599358  0.0000
  O3     O3        0.755907055967878    0.732951196239439    0.652265619222473  0.0000
  O2     O2        0.158827777079779    0.251502719944011    0.116741881328487  0.0000
  O3     O3        0.355720512631853    0.778124345614495    0.120905062487862  0.0000
  O2     O2        0.854594860990985    0.287406486397081    0.871047913445741  0.0000
  O3     O3        0.651391787281696    0.766118141354186    0.864511993412906  0.0000
  O2     O2        0.844162475146820    0.769910509944801    0.857295747926777  0.0000
  O3     O3        0.667589310721682    0.229304552872762    0.868147305378854  0.0000
  O2     O2        0.158408626160305    0.746360208527214    0.122874919364558  0.0000
  O2     O2        0.363691341543256    0.275232312869510    0.117364463896012  0.0000
  O3     O3        0.633521632195116    0.508597924626264    0.033326097222228  0.0000
  O2     O2        0.876580251703462    0.542564095006153    0.042618066092422  0.0000
  O2     O2        0.374381254580458    0.526107243750763    0.945252148217921  0.0000
  O2     O2        0.143270198764414    0.502894241280940    0.940487691517865  0.0000
  O3     O3        0.766705075514333    0.305128334520209    0.079341492188715  0.0000
  O2     O2        0.750424932897527    0.726109922686331    0.056043184623495  0.0000
  O2     O2        0.260922258286071    0.290932727780315    0.927001714621089  0.0000
  O2     O2        0.256903590230566    0.737950594287748    0.928034934488614  0.0000
