data_c00652.vasp
_audit_creation_method             Generated by GULP
_audit_author_name                 Salvador R. G. Balestra
_symmetry_space_group_name_H-M     'P 1             '
_symmetry_Int_Tables_number        1

loop_
_symmetry_equiv_pos_site_id
_symmetry_equiv_pos_as_xyz
_cell_length_a                       17.1695
_cell_length_b                        7.6226
_cell_length_c                       10.3037
_cell_angle_alpha                   89.1264
_cell_angle_beta                    89.9981
_cell_angle_gamma                   89.7337

loop_
_atom_site_label
_atom_site_type_symbol
_atom_site_fract_x
_atom_site_fract_y
_atom_site_fract_z
_atom_site_charge
  Ge     Ge        0.052090000000021    0.000000000000000    0.372269999999958  0.0000
  Ge     Ge        0.354692942718017    0.672404691394445    0.279122408353520  0.0000
  Ge     Ge        0.171062761998866    0.715104793067853    0.970088872774216  0.0000
  Ge     Ge        0.654374171265008    0.669598881158488    0.023736826204534  0.0000
  Si     Si        0.457067746659768    0.983001437923024    0.363745189590457  0.0000
  Si     Si        0.949568219167504    0.007875375875955    0.635254120565527  0.0000
  Si     Si        0.551799361959908    0.001168186613751    0.624946178400151  0.0000
  Si     Si        0.558607524242090    0.984756896823373    0.112885238483881  0.0000
  Si     Si        0.948079938720360    0.986867346525661    0.118014244301768  0.0000
  Si     Si        0.446112904602363    0.992071653848258    0.874171050456759  0.0000
  Si     Si        0.058559424099142    0.002725305404883    0.882115695201019  0.0000
  Si     Si        0.158807568230884    0.304715868724286    0.272988204826149  0.0000
  Si     Si        0.844941019975261    0.312188193199082    0.705332393099475  0.0000
  Si     Si        0.655650454383155    0.693924781352327    0.715196540757446  0.0000
  Si     Si        0.834723711218628    0.713457043036746    0.713727536827833  0.0000
  Si     Si        0.666239802824619    0.288911050777000    0.711797991582022  0.0000
  Si     Si        0.173726208877461    0.714427591083666    0.276794823059824  0.0000
  Si     Si        0.338025613407201    0.263811220853857    0.274128623049608  0.0000
  Si     Si        0.671370788036661    0.265650276461528    0.015357954237902  0.0000
  Si     Si        0.837130256314216    0.697460950580319    0.018920813214928  0.0000
  Si     Si        0.335717578271858    0.278245942934557    0.970758631113230  0.0000
  Si     Si        0.352952557404990    0.675505420019663    0.967320864531836  0.0000
  Si     Si        0.154752312678535    0.310187601835105    0.974873918973673  0.0000
  Si     Si        0.850756834955633    0.300389415410883    0.008464391767087  0.0000
  O3     O3        0.099359062081990    0.199277857573068    0.361565961937610  0.0000
  O3     O3        0.424466364908701    0.787346553207350    0.361752911237287  0.0000
  O2     O2        0.902159998394497    0.191952227848648    0.620317982087514  0.0000
  O2     O2        0.597783180352564    0.816055253337052    0.630241496436402  0.0000
  O2     O2        0.887225469674716    0.849611928768764    0.633551720225735  0.0000
  O2     O2        0.612935728727813    0.160845002724200    0.628752270754685  0.0000
  O3     O3        0.117973736050373    0.830233389079075    0.364161292653360  0.0000
  O2     O2        0.382370235013332    0.112436369715645    0.354993726998729  0.0000
  O3     O3        0.011547552581348    0.986990205090097    0.524343474417816  0.0000
  O2     O2        0.505268990705414    0.017784717278993    0.492219664719590  0.0000
  O3     O3        0.976777232409405    0.982736545947423    0.263863383737332  0.0000
  O2     O2        0.514185031653063    0.026015797533637    0.244351604525542  0.0000
  O2     O2        0.994576357949109    0.003102708105430    0.771604364059161  0.0000
  O2     O2        0.489046642662483    0.016705588484696    0.738640084201330  0.0000
  O2     O2        0.634134592227453    0.109122781614418    0.099387012277817  0.0000
  O2     O2        0.886506171100879    0.831071665945518    0.102522703260411  0.0000
  O2     O2        0.376369259562018    0.134654465377498    0.880700411955165  0.0000
  O3     O3        0.123201027340516    0.854357610737354    0.864355723530617  0.0000
  O2     O2        0.412992257613586    0.794467084819340    0.883925952802818  0.0000
  O2     O2        0.100308521477185    0.192000912615893    0.885107645450057  0.0000
  O3     O3        0.588595788816240    0.785934974623302    0.114559271353516  0.0000
  O2     O2        0.909134045026589    0.175984764656448    0.087744659395268  0.0000
  O2     O2        0.504219130009430    0.030825294378180    0.991000119157880  0.0000
  O2     O2        0.020003280397544    0.954019508529430    0.021443394110150  0.0000
  O2     O2        0.145080687781174    0.512448002079227    0.280636087848805  0.0000
  O3     O3        0.373267518494639    0.451978045060279    0.304103167898704  0.0000
  O2     O2        0.863961606130790    0.516982486921236    0.680761554010676  0.0000
  O2     O2        0.636954915149091    0.489124209924713    0.691930726590243  0.0000
  O2     O2        0.247339437254184    0.259297997588248    0.315360060980814  0.0000
  O3     O3        0.261472198539269    0.721983084478290    0.329307186551324  0.0000
  O2     O2        0.755785390745431    0.273483854943835    0.665484871814564  0.0000
  O2     O2        0.744528395965502    0.734870332688450    0.672803053242667  0.0000
  O2     O2        0.144920524706925    0.245056225741072    0.124410883137664  0.0000
  O3     O3        0.362031675658036    0.726819529082462    0.116638980742943  0.0000
  O2     O2        0.858465064770792    0.262030399517038    0.856038688180128  0.0000
  O3     O3        0.642504830591728    0.737692696573594    0.864540251373007  0.0000
  O2     O2        0.840692584606895    0.749818997730640    0.866767961430558  0.0000
  O2     O2        0.661067678288965    0.231637934975384    0.862191878069831  0.0000
  O3     O3        0.170349324465123    0.783850894348249    0.128722292122058  0.0000
  O2     O2        0.344761801357992    0.222924769927818    0.121235164961080  0.0000
  O3     O3        0.632916732690112    0.450935673764636    0.047314636998931  0.0000
  O2     O2        0.872601486576738    0.501357169494586    0.038043243920106  0.0000
  O2     O2        0.374374166442968    0.469540926240059    0.948398230536679  0.0000
  O3     O3        0.129837918698172    0.509775977827053    0.957660748888164  0.0000
  O2     O2        0.762323284001855    0.266904350131420    0.052766105637378  0.0000
  O3     O3        0.749487177233328    0.703948671703079    0.068686951537314  0.0000
  O2     O2        0.244912500316111    0.287327184418469    0.932798843573236  0.0000
  O3     O3        0.266292037584759    0.708787428410259    0.918187641868796  0.0000
