data_c00621.vasp
_audit_creation_method             Generated by GULP
_audit_author_name                 Salvador R. G. Balestra
_symmetry_space_group_name_H-M     'P 1             '
_symmetry_Int_Tables_number        1

loop_
_symmetry_equiv_pos_site_id
_symmetry_equiv_pos_as_xyz
_cell_length_a                       17.2118
_cell_length_b                        7.6156
_cell_length_c                       10.2232
_cell_angle_alpha                   88.4874
_cell_angle_beta                    90.3550
_cell_angle_gamma                   89.5260

loop_
_atom_site_label
_atom_site_type_symbol
_atom_site_fract_x
_atom_site_fract_y
_atom_site_fract_z
_atom_site_charge
  Ge     Ge        0.052090000000021    0.000000000000000    0.372269999999958  0.0000
  Ge     Ge        0.339441002599449    0.721308986802631    0.292668665739366  0.0000
  Ge     Ge        0.655912561391226    0.337800911000606    0.722373567633633  0.0000
  Ge     Ge        0.851877855271498    0.673763184794899    0.050519737215581  0.0000
  Si     Si        0.457176199539933    0.001141151644772    0.378234186358778  0.0000
  Si     Si        0.952971592617214    0.014201434657966    0.636254476629316  0.0000
  Si     Si        0.552607283929846    0.034506170153547    0.636024912931955  0.0000
  Si     Si        0.556148698266465    0.998012467197109    0.120089046042871  0.0000
  Si     Si        0.948331682432351    0.991059989459640    0.115508996036202  0.0000
  Si     Si        0.443691481282995    0.011196000456577    0.878591864984982  0.0000
  Si     Si        0.061072485232053    0.005416881631732    0.878272267947226  0.0000
  Si     Si        0.173580590637176    0.281470986815896    0.293632574697802  0.0000
  Si     Si        0.836281668772676    0.307121459074420    0.725208848315450  0.0000
  Si     Si        0.671760272681126    0.745651977483115    0.740523101385264  0.0000
  Si     Si        0.849171658675976    0.709638451780900    0.738214498806148  0.0000
  Si     Si        0.156824862178728    0.688777281413804    0.291960407885121  0.0000
  Si     Si        0.353396829089716    0.309979612751947    0.291716240416137  0.0000
  Si     Si        0.652219825590408    0.313930883855193    0.034064510411900  0.0000
  Si     Si        0.349057800714214    0.319535923860079    0.986748008283506  0.0000
  Si     Si        0.157043850232628    0.692325198730426    0.987135131527909  0.0000
  Si     Si        0.336996088810808    0.721655588268476    0.981680100755645  0.0000
  Si     Si        0.169254089924328    0.290386039991710    0.989944685210900  0.0000
  Si     Si        0.671099716621066    0.709462417745949    0.048591819236543  0.0000
  Si     Si        0.830125213664400    0.274102285569484    0.034002478461503  0.0000
  O3     O3        0.125871048780926    0.151912480368478    0.385207878945287  0.0000
  O3     O3        0.393978532139816    0.849886689475886    0.391902106988875  0.0000
  O2     O2        0.895342612540381    0.179095452677869    0.653626666962277  0.0000
  O2     O2        0.623941854653787    0.903580161898198    0.672048010102908  0.0000
  O2     O2        0.907920678559392    0.831641032287278    0.656705714948651  0.0000
  O3     O3        0.587795780227570    0.227394916186958    0.632905432093911  0.0000
  O3     O3        0.093786875089897    0.792906470111148    0.373429864807085  0.0000
  O2     O2        0.411442729896268    0.187034356743673    0.376947220904507  0.0000
  O3     O3        0.983929309311250    0.020941866156207    0.490865303456242  0.0000
  O2     O2        0.519438023706137    0.990744328144798    0.494262734810014  0.0000
  O3     O3        0.003381580653811    0.050698474630423    0.228921795807500  0.0000
  O2     O2        0.501462308371214    0.973485602642308    0.243157273245825  0.0000
  O2     O2        0.027957331694343    0.023974483210561    0.731690482180725  0.0000
  O2     O2        0.481904557658718    0.012797761301203    0.736941997500308  0.0000
  O2     O2        0.595262046120294    0.190030126984114    0.119433181182780  0.0000
  O3     O3        0.919684642992221    0.791911359405331    0.136003341094960  0.0000
  O2     O2        0.403872274793238    0.201142348893424    0.898347514688239  0.0000
  O2     O2        0.101336045711948    0.813910709749727    0.896517943708145  0.0000
  O2     O2        0.380096178801204    0.856803385506173    0.883734484241042  0.0000
  O2     O2        0.123388083495066    0.159005705859018    0.898474565039581  0.0000
  O2     O2        0.621500273223942    0.846151115979541    0.130689256909617  0.0000
  O2     O2        0.869470895376650    0.108109328481379    0.107607210461626  0.0000
  O2     O2        0.508433390476570    0.969146372649718    0.987683107370037  0.0000
  O2     O2        0.990650972662003    0.024570303941846    0.977353254054389  0.0000
  O2     O2        0.146065213052463    0.481034749418981    0.314980520212468  0.0000
  O3     O3        0.370701928304234    0.508387741606504    0.321413612533920  0.0000
  O2     O2        0.867551529313025    0.506140891062925    0.708356567858855  0.0000
  O3     O3        0.636460103339308    0.559989459485444    0.704742593552804  0.0000
  O2     O2        0.264650226156957    0.263403850840350    0.328250165045760  0.0000
  O3     O3        0.242903317981182    0.743493949457726    0.332836188660558  0.0000
  O3     O3        0.749456450676879    0.296428535135358    0.669313682307154  0.0000
  O2     O2        0.760977740876286    0.755386076099997    0.692393530247815  0.0000
  O2     O2        0.159589978182491    0.232265154337750    0.141731878089125  0.0000
  O3     O3        0.350689269904866    0.777714725693316    0.129307974250681  0.0000
  O2     O2        0.830811527551277    0.254188661414499    0.877913861693813  0.0000
  O2     O2        0.673238216578537    0.768693558212232    0.896420274006829  0.0000
  O3     O3        0.860572522645852    0.744693443248333    0.889870495439475  0.0000
  O3     O3        0.642209978163479    0.270240469592860    0.883082438651776  0.0000
  O2     O2        0.143611700292267    0.740672465065727    0.138013308010952  0.0000
  O2     O2        0.365661766137502    0.270898491742828    0.138362750531588  0.0000
  O2     O2        0.631441675835547    0.517103119846874    0.060554737153018  0.0000
  O3     O3        0.872848369996393    0.452640996674927    0.069925946832339  0.0000
  O2     O2        0.368792509023822    0.523949313933930    0.959781761756770  0.0000
  O2     O2        0.136496917040167    0.488503065605915    0.965449267490881  0.0000
  O2     O2        0.740973890863395    0.279649724860306    0.079949236150099  0.0000
  O3     O3        0.757838849790488    0.704083133782119    0.103736647618653  0.0000
  O2     O2        0.259593271042004    0.282615805523287    0.951322716286470  0.0000
  O2     O2        0.245614002001206    0.728542105085391    0.948210250796240  0.0000
