data_c00643.vasp
_audit_creation_method             Generated by GULP
_audit_author_name                 Salvador R. G. Balestra
_symmetry_space_group_name_H-M     'P 1             '
_symmetry_Int_Tables_number        1

loop_
_symmetry_equiv_pos_site_id
_symmetry_equiv_pos_as_xyz
_cell_length_a                       17.1704
_cell_length_b                        7.6453
_cell_length_c                       10.2044
_cell_angle_alpha                   88.9314
_cell_angle_beta                    90.3337
_cell_angle_gamma                   89.9356

loop_
_atom_site_label
_atom_site_type_symbol
_atom_site_fract_x
_atom_site_fract_y
_atom_site_fract_z
_atom_site_charge
  Ge     Ge        0.052090000000021    0.000000000000000    0.372269999999958  0.0000
  Ge     Ge        0.339687071565745    0.724611429944108    0.291173892909309  0.0000
  Ge     Ge        0.853310241980926    0.668353467283186    0.052377925224756  0.0000
  Ge     Ge        0.667742077437417    0.700263601351610    0.049108962528537  0.0000
  Si     Si        0.453871217929037    0.011408947129933    0.379823124719648  0.0000
  Si     Si        0.950735279255563    0.005410691490688    0.634571125375808  0.0000
  Si     Si        0.555121403099325    0.017103789568967    0.635124175217080  0.0000
  Si     Si        0.554617540972508    0.990890460497980    0.123869793220102  0.0000
  Si     Si        0.950048156733284    0.988118486340329    0.114935153786339  0.0000
  Si     Si        0.445547321874465    0.006260041658610    0.878579434319218  0.0000
  Si     Si        0.061377871044429    0.000172351961521    0.874932140739287  0.0000
  Si     Si        0.171006737520698    0.285829438531155    0.291615786614401  0.0000
  Si     Si        0.837956422113837    0.298664080524422    0.727520587270877  0.0000
  Si     Si        0.667968343554558    0.721794480391379    0.736801803459346  0.0000
  Si     Si        0.845889971857554    0.699775994359499    0.736390583092865  0.0000
  Si     Si        0.659638908264115    0.316061695318484    0.728011503057609  0.0000
  Si     Si        0.155895639893451    0.690243282277072    0.287765822732931  0.0000
  Si     Si        0.351544011967794    0.316311241545840    0.293259230704267  0.0000
  Si     Si        0.654724707668093    0.301466942869343    0.031776992638135  0.0000
  Si     Si        0.349822219747891    0.315746749059462    0.987222092126836  0.0000
  Si     Si        0.157441365364994    0.689205547376492    0.982830886998224  0.0000
  Si     Si        0.338374353713770    0.716705082264639    0.979420899833759  0.0000
  Si     Si        0.169331737327104    0.287954468216995    0.987188304712291  0.0000
  Si     Si        0.835261648992184    0.272090928859663    0.034874028093742  0.0000
  O3     O3        0.124156529327118    0.156989212503636    0.385344688872955  0.0000
  O3     O3        0.392380806238489    0.855664611286922    0.393029147629717  0.0000
  O2     O2        0.892967801160317    0.170255795987271    0.647893437034372  0.0000
  O2     O2        0.612991441612251    0.853048616434526    0.653863978827349  0.0000
  O2     O2        0.904935389184317    0.824437769117418    0.657654894016060  0.0000
  O2     O2        0.601708555130408    0.200062710211146    0.641694548826655  0.0000
  O3     O3        0.094414305178146    0.795477238968241    0.371458952367161  0.0000
  O2     O2        0.406685188928912    0.193646191738130    0.382781365033766  0.0000
  O3     O3        0.981940322809769    0.009824196184681    0.488932292910810  0.0000
  O2     O2        0.519246094002455    0.005896052779109    0.490910555223379  0.0000
  O3     O3        0.005552059740715    0.051323108216505    0.227078184271807  0.0000
  O2     O2        0.493641298241422    0.991940415672938    0.239522298728420  0.0000
  O2     O2        0.026477669573239    0.017668126913876    0.729076919075447  0.0000
  O2     O2        0.484015148684747    0.011454456961485    0.736516943152507  0.0000
  O2     O2        0.603388522441029    0.170443958568351    0.118759827027228  0.0000
  O3     O3        0.922258143981371    0.789250948812451    0.134562933239464  0.0000
  O2     O2        0.405638228611429    0.194280828421295    0.902546007727093  0.0000
  O2     O2        0.102659152375035    0.810479189455548    0.891164965365702  0.0000
  O2     O2        0.381908510588770    0.850914273841336    0.881364924948878  0.0000
  O2     O2        0.123427034921281    0.155356816619923    0.895195331235338  0.0000
  O3     O3        0.613183934985265    0.832164524731378    0.146490013364021  0.0000
  O2     O2        0.871033176963820    0.104984902274780    0.110330722790080  0.0000
  O2     O2        0.511017071487546    0.961543589262591    0.986136572183134  0.0000
  O2     O2        0.991177709261889    0.017496647537281    0.975093561947103  0.0000
  O2     O2        0.142742290453766    0.484166255312780    0.311458759753701  0.0000
  O3     O3        0.370911346712519    0.513751557579225    0.322472557168483  0.0000
  O2     O2        0.866672420750072    0.497939247817479    0.705066511492451  0.0000
  O2     O2        0.639582671591488    0.522015879987562    0.714247395902346  0.0000
  O2     O2        0.262052456976446    0.272874400440955    0.327514986604106  0.0000
  O3     O3        0.242455708077075    0.745026110120039    0.327747791175905  0.0000
  O2     O2        0.748058616215376    0.281611169502710    0.681042188272285  0.0000
  O2     O2        0.757405368016506    0.740716748176741    0.689216654545480  0.0000
  O2     O2        0.158115859995065    0.233493874469682    0.139438336376980  0.0000
  O3     O3        0.353100800643062    0.774434662666809    0.127144213039669  0.0000
  O2     O2        0.842375784468281    0.245776232900451    0.879623576300125  0.0000
  O3     O3        0.665433590130258    0.771429970109261    0.887518225122269  0.0000
  O3     O3        0.854384210033304    0.732542845160658    0.889154584749162  0.0000
  O2     O2        0.648281719328779    0.253381792231230    0.878464726360514  0.0000
  O2     O2        0.142421564087552    0.739263337380061    0.133488543683010  0.0000
  O2     O2        0.365067459735594    0.274473094168929    0.140150606244895  0.0000
  O3     O3        0.626001543598969    0.494704804624957    0.056254762217921  0.0000
  O3     O3        0.878006857950608    0.450083290329959    0.072176709474811  0.0000
  O2     O2        0.369396361419092    0.519230929564689    0.957254138738033  0.0000
  O2     O2        0.137457328084762    0.485191775301624    0.960645597103422  0.0000
  O2     O2        0.745141330639539    0.288974660028786    0.075394601863862  0.0000
  O1     O1        0.760866768154760    0.700218194047333    0.107444394849826  0.0000
  O2     O2        0.260195204790086    0.277288192631973    0.950555111054031  0.0000
  O2     O2        0.246751485071757    0.724878822743226    0.946643068115679  0.0000
