data_c00678.vasp
_audit_creation_method             Generated by GULP
_audit_author_name                 Salvador R. G. Balestra
_symmetry_space_group_name_H-M     'P 1             '
_symmetry_Int_Tables_number        1

loop_
_symmetry_equiv_pos_site_id
_symmetry_equiv_pos_as_xyz
_cell_length_a                       17.2613
_cell_length_b                        7.6411
_cell_length_c                       10.2091
_cell_angle_alpha                   89.0387
_cell_angle_beta                    89.9364
_cell_angle_gamma                   89.9917

loop_
_atom_site_label
_atom_site_type_symbol
_atom_site_fract_x
_atom_site_fract_y
_atom_site_fract_z
_atom_site_charge
  Ge     Ge        0.052090000000021    0.000000000000000    0.372269999999958  0.0000
  Ge     Ge        0.849215080122252    0.334456959072681    0.717832391510799  0.0000
  Ge     Ge        0.662098617409384    0.310710274931707    0.714092145404114  0.0000
  Ge     Ge        0.346357883410892    0.679057030633307    0.971160201800535  0.0000
  Si     Si        0.450328861170992    0.989215390088621    0.381398597410409  0.0000
  Si     Si        0.952585731523514    0.026278900168976    0.633536030526761  0.0000
  Si     Si        0.547454905073250    0.021118377752344    0.639589538014159  0.0000
  Si     Si        0.555992263149367    0.993339309677772    0.133873955148497  0.0000
  Si     Si        0.941027886126052    0.997434073274870    0.116726855929946  0.0000
  Si     Si        0.444042053468500    0.994549338487959    0.890714837198989  0.0000
  Si     Si        0.054470624942424    0.002275659609912    0.881813697571891  0.0000
  Si     Si        0.159281636263959    0.307333696169513    0.298027446497695  0.0000
  Si     Si        0.348834070089843    0.686602728517063    0.283564810356998  0.0000
  Si     Si        0.656186600208487    0.719260366741688    0.733468159456840  0.0000
  Si     Si        0.835383598237730    0.739926995277174    0.737878771000370  0.0000
  Si     Si        0.170127597586090    0.711405677330989    0.289281252080904  0.0000
  Si     Si        0.337650333978176    0.283912538759557    0.289160897832980  0.0000
  Si     Si        0.663121938404333    0.286209365484287    0.025752381668732  0.0000
  Si     Si        0.831441776641936    0.705261985310852    0.046086829047037  0.0000
  Si     Si        0.331652609908968    0.276286207568297    0.982116674869206  0.0000
  Si     Si        0.163635759324170    0.707178857630883    0.984005903059335  0.0000
  Si     Si        0.152509284249682    0.305929016183653    0.994377314331471  0.0000
  Si     Si        0.653957756070956    0.687242762773127    0.038572656339207  0.0000
  Si     Si        0.842827567073274    0.309872156993481    0.032410146337328  0.0000
  O3     O3        0.101778084098695    0.195483593108800    0.387154849831122  0.0000
  O2     O2        0.405989122362662    0.805170087023920    0.368466650994092  0.0000
  O3     O3        0.918319493864730    0.220794821292432    0.632176809519484  0.0000
  O2     O2        0.603253925005313    0.853513132938350    0.653014482831224  0.0000
  O2     O2        0.880862711855575    0.900118988122775    0.671691505248631  0.0000
  O3     O3        0.601241759920277    0.188614040288196    0.618171342020367  0.0000
  O3     O3        0.120318294618683    0.834628182117891    0.379145450653585  0.0000
  O2     O2        0.390174446015194    0.150011460523163    0.371590233086320  0.0000
  O3     O3        0.983908162407467    0.976767760628243    0.492559074282213  0.0000
  O2     O2        0.487941356739865    0.991691997256142    0.523368882492325  0.0000
  O3     O3        0.004514827135311    0.985312047685000    0.226171763520339  0.0000
  O2     O2        0.518655742893263    0.009629047350811    0.276031664174004  0.0000
  O2     O2        0.024828728307090    0.006573083947497    0.733084550350888  0.0000
  O2     O2        0.497503138904320    0.049847617293982    0.770347037354298  0.0000
  O2     O2        0.617694102017748    0.149698563184605    0.118284705703170  0.0000
  O2     O2        0.879645358964289    0.838406428340089    0.134138620388906  0.0000
  O2     O2        0.370482559817659    0.124825952750354    0.898364140257309  0.0000
  O2     O2        0.112363881233422    0.838827130601990    0.896913554847856  0.0000
  O3     O3        0.409606200235653    0.801613673209219    0.876851455428474  0.0000
  O2     O2        0.096484954227177    0.186353234234210    0.909381115055308  0.0000
  O2     O2        0.596988024180800    0.803383501072767    0.125817622800111  0.0000
  O2     O2        0.895459381217495    0.182012454436913    0.122035083276360  0.0000
  O2     O2        0.490647569896993    0.014054748234257    0.024895229810061  0.0000
  O2     O2        0.981315109632005    0.976435251213923    0.975811405478328  0.0000
  O2     O2        0.142923589598120    0.512104966672675    0.315316063498280  0.0000
  O2     O2        0.366565686653722    0.481815116189355    0.312740566471660  0.0000
  O3     O3        0.869504398951603    0.555293164227388    0.696420816304026  0.0000
  O3     O3        0.631924944680848    0.525081009868937    0.700006769599230  0.0000
  O2     O2        0.248457616884801    0.263756497846338    0.334212919948040  0.0000
  O2     O2        0.260656031660118    0.729541589711772    0.323879177030343  0.0000
  O1     O1        0.756692263446245    0.294341143213921    0.666473979073378  0.0000
  O2     O2        0.745674747042154    0.751164195434938    0.693245160648907  0.0000
  O2     O2        0.142843208853981    0.253522504436914    0.147247198853929  0.0000
  O3     O3        0.362208360943941    0.732131294117988    0.132308242801432  0.0000
  O3     O3        0.857715924671949    0.275040350783502    0.881113214436389  0.0000
  O2     O2        0.645354881707818    0.752253615605492    0.888470063191008  0.0000
  O2     O2        0.838768993236740    0.757996536359717    0.894177576608771  0.0000
  O3     O3        0.654261376663407    0.238277621550298    0.875267048432510  0.0000
  O2     O2        0.159109487943807    0.762821734219074    0.135874117300802  0.0000
  O2     O2        0.344283872820137    0.239999660658850    0.136472989704335  0.0000
  O2     O2        0.630806613176856    0.482849184969221    0.050199866759765  0.0000
  O2     O2        0.864406237832063    0.509340513172337    0.068675196935552  0.0000
  O3     O3        0.367386389250755    0.462556806334674    0.943655154479492  0.0000
  O2     O2        0.130884672748913    0.509390013486576    0.969715635259082  0.0000
  O2     O2        0.753004337057583    0.276097995916259    0.065592575086431  0.0000
  O2     O2        0.741605646279031    0.713823605940786    0.088460594093253  0.0000
  O2     O2        0.240531607581642    0.275264506208017    0.949435510746324  0.0000
  O3     O3        0.250681698963730    0.717619348693319    0.932916177738945  0.0000
