data_c00662.vasp
_audit_creation_method             Generated by GULP
_audit_author_name                 Salvador R. G. Balestra
_symmetry_space_group_name_H-M     'P 1             '
_symmetry_Int_Tables_number        1

loop_
_symmetry_equiv_pos_site_id
_symmetry_equiv_pos_as_xyz
_cell_length_a                       17.2351
_cell_length_b                        7.6604
_cell_length_c                       10.2839
_cell_angle_alpha                   90.0659
_cell_angle_beta                    90.6323
_cell_angle_gamma                   90.7127

loop_
_atom_site_label
_atom_site_type_symbol
_atom_site_fract_x
_atom_site_fract_y
_atom_site_fract_z
_atom_site_charge
  Ge     Ge        0.052090000000021    0.000000000000000    0.372269999999958  0.0000
  Ge     Ge        0.849645156098644    0.319217726147933    0.711492673881980  0.0000
  Ge     Ge        0.652868222139148    0.691224483092381    0.706432445817905  0.0000
  Ge     Ge        0.667882887077031    0.290126263738452    0.020774527388324  0.0000
  Si     Si        0.450568179549282    0.007392266211316    0.367169010430886  0.0000
  Si     Si        0.954553432966478    0.012651430244565    0.635439956846199  0.0000
  Si     Si        0.547165228510962    0.997228783211263    0.626990604107866  0.0000
  Si     Si        0.559886055690803    0.999575923880511    0.125142999999192  0.0000
  Si     Si        0.943239088792792    0.020708457193643    0.124988461281102  0.0000
  Si     Si        0.446982430037775    0.020770204367988    0.883224077144519  0.0000
  Si     Si        0.056826030187639    0.008251420103881    0.891644803769536  0.0000
  Si     Si        0.163953802404819    0.302220380645414    0.269879226439594  0.0000
  Si     Si        0.343989034401639    0.705928272314753    0.276164440326133  0.0000
  Si     Si        0.834495178453825    0.725820170845899    0.705454605142303  0.0000
  Si     Si        0.665434405943672    0.281415642660515    0.713337746725935  0.0000
  Si     Si        0.164972926398856    0.706649777959038    0.273516853458737  0.0000
  Si     Si        0.342527203179266    0.304352248278249    0.268865030443256  0.0000
  Si     Si        0.833807484303727    0.725942311803704    0.011876526068883  0.0000
  Si     Si        0.340688554316783    0.315303419298068    0.964622118773511  0.0000
  Si     Si        0.163555977847774    0.712929161000111    0.971530020670854  0.0000
  Si     Si        0.343503793563422    0.712726464029922    0.972617856174216  0.0000
  Si     Si        0.161508577666921    0.312987608481294    0.967393899639031  0.0000
  Si     Si        0.653483723156565    0.692453567690977    0.017552677885351  0.0000
  Si     Si        0.852727589543775    0.329692847893755    0.016813552716560  0.0000
  O3     O3        0.107948431921856    0.186170832108284    0.355005880744188  0.0000
  O2     O2        0.398086849072094    0.831690343490898    0.363450181449917  0.0000
  O3     O3        0.910635072634814    0.194940694066161    0.619397282402458  0.0000
  O3     O3        0.586569999198951    0.809862600107154    0.618668150038430  0.0000
  O2     O2        0.889295043076684    0.859520648553844    0.627864865494288  0.0000
  O2     O2        0.615528774751496    0.142910498990143    0.628057619799361  0.0000
  O3     O3        0.109947610103786    0.819449423656567    0.360277805106004  0.0000
  O2     O2        0.398004451150525    0.177143489306235    0.348112612199142  0.0000
  O3     O3        0.018877627794077    0.991618227295568    0.528743855690256  0.0000
  O2     O2        0.490215484287288    0.026618637583856    0.506437007474249  0.0000
  O3     O3        0.972224431760339    0.997252318026524    0.270940021070756  0.0000
  O2     O2        0.517196527593240    0.995791634229107    0.261225042059399  0.0000
  O2     O2        0.994918227184284    0.002913238491087    0.776964209175663  0.0000
  O2     O2        0.496383662183956    0.014179770702039    0.755124095405275  0.0000
  O3     O3        0.625469496465870    0.147963189625890    0.127347984537432  0.0000
  O2     O2        0.879385559999125    0.871300386065303    0.094196734915267  0.0000
  O2     O2        0.390600271694645    0.187477027098059    0.876435978282984  0.0000
  O2     O2        0.112806153508069    0.840691768496286    0.882470878825549  0.0000
  O2     O2        0.396339949428876    0.842949617844191    0.890179253623823  0.0000
  O2     O2        0.107824716147888    0.186288803027908    0.879688418683701  0.0000
  O2     O2        0.598733771748656    0.812539522842983    0.103954673245963  0.0000
  O2     O2        0.907441366789524    0.213636986342333    0.110128310838417  0.0000
  O2     O2        0.501667272217691    0.046519953814427    0.008100976169208  0.0000
  O2     O2        0.015827130135601    0.999550371522664    0.030492896268093  0.0000
  O2     O2        0.144874880760243    0.503777928917135    0.295705425229911  0.0000
  O2     O2        0.364727488419980    0.504542171067031    0.304148915216573  0.0000
  O3     O3        0.850290586156202    0.531227869173122    0.656210596721383  0.0000
  O3     O3        0.651265980383719    0.475492839949582    0.660387529058942  0.0000
  O2     O2        0.253628445519259    0.264820133488914    0.306795229217898  0.0000
  O2     O2        0.254951297535663    0.742026854382961    0.311042578692756  0.0000
  O3     O3        0.755844840823762    0.238011004149441    0.704607010040374  0.0000
  O3     O3        0.745441627818168    0.773111713593160    0.682219111009039  0.0000
  O2     O2        0.150365085738006    0.259056629021859    0.117520831135649  0.0000
  O2     O2        0.358343991642326    0.750342457960549    0.125028994208408  0.0000
  O3     O3        0.882206251251962    0.311377356004652    0.870800865817720  0.0000
  O3     O3        0.628191216201565    0.707903958232165    0.867990790877143  0.0000
  O2     O2        0.853616751056133    0.737612193073464    0.859931869333610  0.0000
  O3     O3        0.637773842712614    0.264745660963444    0.861781764077970  0.0000
  O2     O2        0.151173276943544    0.758413530923899    0.122752814948038  0.0000
  O2     O2        0.353706781915991    0.269986252971723    0.115990166141742  0.0000
  O3     O3        0.645443340193576    0.498459519895915    0.070118544484646  0.0000
  O2     O2        0.856553033988239    0.532813348396743    0.062616146364912  0.0000
  O2     O2        0.367181148824099    0.514884658658693    0.938044094939921  0.0000
  O2     O2        0.137105475920048    0.513214576479099    0.943275490989085  0.0000
  O3     O3        0.765937420697508    0.257835072485993    0.026273168031219  0.0000
  O2     O2        0.742848188449275    0.757871426695849    0.030486178409747  0.0000
  O2     O2        0.250564257232330    0.289201427956872    0.926943121745169  0.0000
  O2     O2        0.253583198912569    0.740865902304336    0.936321013593264  0.0000
