data_c00612.vasp
_audit_creation_method             Generated by GULP
_audit_author_name                 Salvador R. G. Balestra
_symmetry_space_group_name_H-M     'P 1             '
_symmetry_Int_Tables_number        1

loop_
_symmetry_equiv_pos_site_id
_symmetry_equiv_pos_as_xyz
_cell_length_a                       17.2318
_cell_length_b                        7.6317
_cell_length_c                       10.2401
_cell_angle_alpha                   90.2006
_cell_angle_beta                    89.6736
_cell_angle_gamma                   89.6640

loop_
_atom_site_label
_atom_site_type_symbol
_atom_site_fract_x
_atom_site_fract_y
_atom_site_fract_z
_atom_site_charge
  Ge     Ge        0.052090000000021    0.000000000000000    0.372269999999958  0.0000
  Ge     Ge        0.339762365573475    0.721602255537808    0.274305097082604  0.0000
  Ge     Ge        0.849248872898839    0.693249229536411    0.703256001701765  0.0000
  Ge     Ge        0.651742875744293    0.338016082231392    0.022827874867812  0.0000
  Si     Si        0.457175745938857    0.005380472694913    0.354055454218176  0.0000
  Si     Si        0.955379804544261    0.999960580069779    0.637577725759565  0.0000
  Si     Si        0.553724963135287    0.014272233120590    0.612924665736356  0.0000
  Si     Si        0.554968219765556    0.021305366921723    0.098154062027641  0.0000
  Si     Si        0.942514925773920    0.010724748441490    0.126672690214768  0.0000
  Si     Si        0.443704735313611    0.012619006243190    0.856182493957697  0.0000
  Si     Si        0.058186566974725    0.007297458045689    0.892178306104087  0.0000
  Si     Si        0.173050184372957    0.284810685869489    0.268900283456810  0.0000
  Si     Si        0.835146516649049    0.285171955582919    0.716924086589436  0.0000
  Si     Si        0.668187199236989    0.719833890401427    0.701756516289659  0.0000
  Si     Si        0.656846315071168    0.316228937310027    0.712384941358107  0.0000
  Si     Si        0.158147834521102    0.690480504654905    0.278677197181961  0.0000
  Si     Si        0.352320791532479    0.310232709386314    0.263779508342313  0.0000
  Si     Si        0.848571580973483    0.702418497580556    0.013895270143771  0.0000
  Si     Si        0.348125195850640    0.322842569470481    0.959591410965751  0.0000
  Si     Si        0.158288017207236    0.696397379874123    0.972986453454204  0.0000
  Si     Si        0.337405790848765    0.724593913081904    0.963671453160162  0.0000
  Si     Si        0.168969638756905    0.297689218824877    0.965417493683158  0.0000
  Si     Si        0.670231478748227    0.738992155888390    0.009090758073135  0.0000
  Si     Si        0.833347422516420    0.304863470783754    0.023740668199732  0.0000
  O3     O3        0.124066052918928    0.153258959973942    0.353313115167429  0.0000
  O3     O3        0.395917818745876    0.851540109875825    0.372180253671924  0.0000
  O2     O2        0.883479478702778    0.137246857031781    0.640350928632534  0.0000
  O2     O2        0.611133327735403    0.848090437823406    0.624047756355240  0.0000
  O3     O3        0.916735511680820    0.811262728499663    0.616387638861086  0.0000
  O2     O2        0.600449876960304    0.194734877630865    0.627599390911401  0.0000
  O3     O3        0.093956109027255    0.794557157413750    0.359883414050180  0.0000
  O2     O2        0.410295791407614    0.188031422613762    0.344383051725627  0.0000
  O3     O3        0.017345048752583    0.037921521793047    0.527334597454060  0.0000
  O2     O2        0.517953147342211    0.014335326061459    0.469961277482808  0.0000
  O3     O3        0.973195670135083    0.020991530315621    0.272104841451662  0.0000
  O2     O2        0.504739229637774    0.964645595090441    0.221707559604471  0.0000
  O2     O2        0.998474805973866    0.014126656699649    0.775737703365135  0.0000
  O2     O2        0.483350608695116    0.000164123184756    0.715443272834446  0.0000
  O3     O3        0.584806663864955    0.218651241965480    0.110540692553189  0.0000
  O2     O2        0.902604728207632    0.822603570977379    0.103919426446950  0.0000
  O2     O2        0.402404981675756    0.202736489518427    0.868100479685359  0.0000
  O2     O2        0.101680364818569    0.819293246627624    0.889427035706426  0.0000
  O2     O2        0.381278788113343    0.856932569135155    0.867269451829951  0.0000
  O2     O2        0.120548071262841    0.163754814831388    0.876959545065182  0.0000
  O2     O2        0.631309502470887    0.898348059618048    0.087598275261797  0.0000
  O2     O2        0.881742085001977    0.168650792460671    0.108854475452130  0.0000
  O2     O2        0.507243914256464    0.987419453814773    0.967021943283538  0.0000
  O2     O2        0.014889542402608    0.035540553402201    0.029456529767025  0.0000
  O2     O2        0.146066760795254    0.483380417525675    0.298477007517385  0.0000
  O3     O3        0.370686307700818    0.508774363184959    0.295315151758007  0.0000
  O3     O3        0.869847885453891    0.473458389734551    0.684836163808417  0.0000
  O2     O2        0.637917238939862    0.520537399766131    0.685717287972020  0.0000
  O2     O2        0.263871058987537    0.264658406940631    0.303202865431985  0.0000
  O3     O3        0.244116219629139    0.742764920944842    0.321791863844662  0.0000
  O2     O2        0.745840561079468    0.277146104614368    0.670440801408428  0.0000
  O3     O3        0.755638087405613    0.733302790723433    0.650246484633165  0.0000
  O2     O2        0.160793692222434    0.241597634148217    0.116085649401174  0.0000
  O3     O3        0.349561311113739    0.780757166846368    0.112343349491035  0.0000
  O2     O2        0.835831739497643    0.249168064285654    0.871962450261538  0.0000
  O2     O2        0.668633756723192    0.773008344600627    0.854013533589236  0.0000
  O3     O3        0.860171485086032    0.754792498097812    0.864639790456013  0.0000
  O3     O3        0.643258779715146    0.271152791499204    0.862578364234907  0.0000
  O2     O2        0.148507730844406    0.740780659029623    0.125880351804432  0.0000
  O2     O2        0.363917677599509    0.270814125977898    0.109392057791295  0.0000
  O3     O3        0.628596507506230    0.557009359107146    0.040302263670447  0.0000
  O2     O2        0.870729459463734    0.498647765727561    0.037532695196998  0.0000
  O2     O2        0.369241153851220    0.526607788370553    0.939323725821023  0.0000
  O2     O2        0.136396579146839    0.494510921827469    0.944437305631781  0.0000
  O3     O3        0.745722512956120    0.305438014421454    0.074358661077699  0.0000
  O2     O2        0.759027339640944    0.729133114832984    0.055582453144643  0.0000
  O2     O2        0.258841796733253    0.288954727311386    0.922593467990062  0.0000
  O2     O2        0.246406439440639    0.731763762559926    0.929451329245870  0.0000
