data_c00676.vasp
_audit_creation_method             Generated by GULP
_audit_author_name                 Salvador R. G. Balestra
_symmetry_space_group_name_H-M     'P 1             '
_symmetry_Int_Tables_number        1

loop_
_symmetry_equiv_pos_site_id
_symmetry_equiv_pos_as_xyz
_cell_length_a                       17.2391
_cell_length_b                        7.6733
_cell_length_c                       10.2318
_cell_angle_alpha                   88.4054
_cell_angle_beta                    90.0534
_cell_angle_gamma                   90.1991

loop_
_atom_site_label
_atom_site_type_symbol
_atom_site_fract_x
_atom_site_fract_y
_atom_site_fract_z
_atom_site_charge
  Ge     Ge        0.052090000000021    0.000000000000000    0.372269999999958  0.0000
  Ge     Ge        0.850633624409725    0.333997701568200    0.722339768104499  0.0000
  Ge     Ge        0.661557904562291    0.306413547863833    0.715491232796284  0.0000
  Ge     Ge        0.334701257242571    0.310307008683129    0.973560173685841  0.0000
  Si     Si        0.451021259825503    0.994543953142261    0.379699011816816  0.0000
  Si     Si        0.954434137307225    0.030477353506662    0.635324352060596  0.0000
  Si     Si        0.549347648029484    0.012880009694715    0.636798194843116  0.0000
  Si     Si        0.555258650598710    0.998470011552271    0.130935036232283  0.0000
  Si     Si        0.939165634784044    0.999866287492243    0.117695561006675  0.0000
  Si     Si        0.443935950313259    0.020136418712428    0.889225538491207  0.0000
  Si     Si        0.054079114493572    0.019709478236818    0.885156200388731  0.0000
  Si     Si        0.162281977089505    0.308266014867348    0.294727240593022  0.0000
  Si     Si        0.346736125920126    0.695549006155789    0.285469148856398  0.0000
  Si     Si        0.658699649151876    0.715224216371610    0.724234514585402  0.0000
  Si     Si        0.837179481414271    0.737673956850144    0.736428317050632  0.0000
  Si     Si        0.167508725424908    0.710317269732943    0.296028498663177  0.0000
  Si     Si        0.340444378125107    0.292297257904601    0.285171372130831  0.0000
  Si     Si        0.659958657381724    0.291821436925185    0.023129784001969  0.0000
  Si     Si        0.830366659420314    0.704289877025148    0.045918507307349  0.0000
  Si     Si        0.161409308560772    0.723925191977753    0.993163027103269  0.0000
  Si     Si        0.342369013122073    0.712256046800270    0.981253866592288  0.0000
  Si     Si        0.153034804763576    0.324435472759989    0.988869287235312  0.0000
  Si     Si        0.652052867920483    0.689812007901836    0.032284593497382  0.0000
  Si     Si        0.843226371980535    0.313588482782626    0.031436004040009  0.0000
  O3     O3        0.104974046801491    0.190919953971074    0.380505434344991  0.0000
  O2     O2        0.402998918264541    0.814861523568267    0.369638797789162  0.0000
  O3     O3        0.917127475993768    0.220801312224292    0.632622787853713  0.0000
  O2     O2        0.605570886707164    0.846275516190979    0.640489357203301  0.0000
  O2     O2        0.886645686718619    0.895584922639533    0.676651009442333  0.0000
  O3     O3        0.601946431934487    0.183384377940523    0.619019962743114  0.0000
  O3     O3        0.116949797537516    0.828972337703163    0.386378774142689  0.0000
  O2     O2        0.394937245102644    0.161330132339637    0.367725511790688  0.0000
  O3     O3        0.984954303283295    0.983938561373390    0.494351428421325  0.0000
  O2     O2        0.487797040187789    0.995623288893910    0.522128511402177  0.0000
  O3     O3        0.002495683107171    0.989159725335328    0.227865731957720  0.0000
  O2     O2        0.520147404136567    0.003181055622189    0.274992866085662  0.0000
  O2     O2        0.026959994314800    0.018953076310953    0.735320239317669  0.0000
  O2     O2        0.503533127608428    0.016807921180660    0.772277963745831  0.0000
  O2     O2        0.620039985141798    0.150153906794462    0.120090719797610  0.0000
  O2     O2        0.879705651529935    0.836926703105884    0.131197082801571  0.0000
  O3     O3        0.387644113595822    0.183615255412571    0.872187915084909  0.0000
  O2     O2        0.115243409437249    0.863167831172422    0.904574729114868  0.0000
  O2     O2        0.390922551585124    0.846642812873478    0.891635530538385  0.0000
  O2     O2        0.092183676436628    0.207440113911121    0.911645269640084  0.0000
  O2     O2        0.592924436384848    0.808624217319190    0.111013302547883  0.0000
  O2     O2        0.890026692888655    0.178709864627721    0.125394941212168  0.0000
  O2     O2        0.488293432498578    0.038241313358553    0.026357616812258  0.0000
  O2     O2        0.980362823331317    0.987860853941072    0.977271937431370  0.0000
  O2     O2        0.142741127408970    0.509517795809263    0.318407358972407  0.0000
  O2     O2        0.367382809164844    0.491836072415949    0.307586648254979  0.0000
  O3     O3        0.861231657014840    0.553310176806634    0.681125441149207  0.0000
  O3     O3        0.644912106894702    0.523077355726403    0.676389076537388  0.0000
  O2     O2        0.251547639850870    0.268605795490220    0.332843438386768  0.0000
  O2     O2        0.258520623760169    0.730940586474382    0.328275844230026  0.0000
  O1     O1        0.757760695554972    0.266982052265617    0.691855826014636  0.0000
  O2     O2        0.747532486859466    0.774140033204092    0.700817636325584  0.0000
  O2     O2        0.150511766766824    0.266509490179067    0.141785461900356  0.0000
  O2     O2        0.357942600035051    0.749500773122042    0.133616575580543  0.0000
  O3     O3        0.874040555663940    0.299990126964151    0.885438977692887  0.0000
  O2     O2        0.639538023408992    0.726113312564872    0.878402337442065  0.0000
  O2     O2        0.846867522810262    0.730183306923000    0.892683395553761  0.0000
  O3     O3        0.634651720588300    0.260478317799570    0.875906734421050  0.0000
  O2     O2        0.152042993216196    0.770853324377636    0.144996329984149  0.0000
  O3     O3        0.346260908349665    0.245859295372965    0.134733007867794  0.0000
  O2     O2        0.635246417768151    0.486141498666273    0.065677472687436  0.0000
  O2     O2        0.854771954700800    0.507114975169636    0.087741574245709  0.0000
  O3     O3        0.368137063511154    0.520275476604963    0.948878501833771  0.0000
  O2     O2        0.129570956571534    0.528398189389483    0.970540120093108  0.0000
  O2     O2        0.752249552878560    0.268074965652796    0.030196815260883  0.0000
  O2     O2        0.739692340635966    0.736067623266512    0.074295316236040  0.0000
  O3     O3        0.238002204089895    0.296143863755672    0.932804366219999  0.0000
  O2     O2        0.251054323697109    0.734388796948987    0.951439896389852  0.0000
