data_c00626.vasp
_audit_creation_method             Generated by GULP
_audit_author_name                 Salvador R. G. Balestra
_symmetry_space_group_name_H-M     'P 1             '
_symmetry_Int_Tables_number        1

loop_
_symmetry_equiv_pos_site_id
_symmetry_equiv_pos_as_xyz
_cell_length_a                       17.1783
_cell_length_b                        7.6406
_cell_length_c                       10.2532
_cell_angle_alpha                   88.7498
_cell_angle_beta                    89.8735
_cell_angle_gamma                   89.7980

loop_
_atom_site_label
_atom_site_type_symbol
_atom_site_fract_x
_atom_site_fract_y
_atom_site_fract_z
_atom_site_charge
  Ge     Ge        0.052090000000021    0.000000000000000    0.372269999999958  0.0000
  Ge     Ge        0.340454384579505    0.726124850922694    0.297475987403580  0.0000
  Ge     Ge        0.661817386516296    0.335068831338200    0.728355651913009  0.0000
  Ge     Ge        0.673866613175309    0.725349920392211    0.048038450106047  0.0000
  Si     Si        0.455407327593551    0.012053758930642    0.384911128764321  0.0000
  Si     Si        0.957853820755631    0.017038509331500    0.641268036874470  0.0000
  Si     Si        0.556779084526462    0.034312675179431    0.637656898146964  0.0000
  Si     Si        0.559511235752894    0.009580557989380    0.131263869430269  0.0000
  Si     Si        0.950034802725518    0.001651840991287    0.111200199550161  0.0000
  Si     Si        0.451197595246239    0.013279716495680    0.887919577703444  0.0000
  Si     Si        0.066997339648219    0.009303437424344    0.878395950515772  0.0000
  Si     Si        0.172570979050818    0.286312763512805    0.292921372297143  0.0000
  Si     Si        0.842399073168930    0.312578388112544    0.728652669961199  0.0000
  Si     Si        0.673523867385317    0.748912073469230    0.740106972661097  0.0000
  Si     Si        0.850907098032033    0.711167232694088    0.740910709687839  0.0000
  Si     Si        0.157476884208248    0.691170856647923    0.292452960210414  0.0000
  Si     Si        0.352922194015106    0.317310598902666    0.297791208300810  0.0000
  Si     Si        0.655762349172021    0.321230981763685    0.035967034721971  0.0000
  Si     Si        0.853996434056540    0.684097649717961    0.048779033991403  0.0000
  Si     Si        0.354447904438116    0.322644530045432    0.993405314400461  0.0000
  Si     Si        0.161834906960633    0.696345216462535    0.988299366878061  0.0000
  Si     Si        0.342210224121996    0.723969149705210    0.986937314017130  0.0000
  Si     Si        0.174076168015819    0.295077070938642    0.990140246266992  0.0000
  Si     Si        0.834943566995357    0.293437223360154    0.036204356271853  0.0000
  O3     O3        0.124546710737393    0.155844201548466    0.383334234292330  0.0000
  O3     O3        0.394152913973226    0.856081652688732    0.396659498349028  0.0000
  O2     O2        0.902611688865933    0.184742118949492    0.659685003340206  0.0000
  O2     O2        0.624729508441218    0.890330209480047    0.656220188666160  0.0000
  O2     O2        0.911505581736525    0.838246970682502    0.669634366993794  0.0000
  O3     O3        0.595810921267377    0.223418503438028    0.636209232037755  0.0000
  O3     O3        0.094403490751778    0.795105817659933    0.374109174680845  0.0000
  O2     O2        0.407682681688947    0.194071017755188    0.386828490101006  0.0000
  O3     O3        0.984864507416672    0.017706784620874    0.493644401033107  0.0000
  O2     O2        0.517467728943612    0.003163049887366    0.499376571565722  0.0000
  O3     O3        0.004403440938404    0.044171441133605    0.228683632145978  0.0000
  O2     O2        0.499626400362037    0.994905465594997    0.248496036052307  0.0000
  O2     O2        0.034738305522679    0.024774402516917    0.731668218137774  0.0000
  O2     O2        0.489903001904290    0.015513750512878    0.746699094826350  0.0000
  O2     O2        0.600020661340311    0.199871754191629    0.125897540900759  0.0000
  O2     O2        0.917348750403468    0.802496838794344    0.121807823246452  0.0000
  O2     O2        0.411433721678856    0.202587651632825    0.909453077204251  0.0000
  O2     O2        0.106828511543853    0.818887926670774    0.898832030659988  0.0000
  O2     O2        0.387389674049862    0.858818090625968    0.891589796424578  0.0000
  O2     O2        0.129404149695103    0.163217281417738    0.897448937725781  0.0000
  O3     O3        0.624408758643399    0.861463484880843    0.149609748845609  0.0000
  O2     O2        0.877158624872408    0.135546504404481    0.112225065608670  0.0000
  O2     O2        0.515850022687828    0.969788729170513    0.996157517293912  0.0000
  O2     O2        0.995112683029456    0.033190130824599    0.975431719131006  0.0000
  O2     O2        0.144522790718539    0.484687480520179    0.314361587552043  0.0000
  O3     O3        0.371356830546208    0.514585490728337    0.328305779990553  0.0000
  O2     O2        0.872606079227659    0.511628061221292    0.706683748797162  0.0000
  O3     O3        0.640869514209093    0.555808487140144    0.720470924056565  0.0000
  O2     O2        0.263303216204120    0.271403163034822    0.329652906910706  0.0000
  O3     O3        0.243311373713861    0.745582493384642    0.335570172928627  0.0000
  O3     O3        0.755701091729067    0.297053502110822    0.673680049115728  0.0000
  O2     O2        0.763644363956668    0.753913955377655    0.691658475955544  0.0000
  O2     O2        0.160897882983341    0.237709170345356    0.140851543814225  0.0000
  O3     O3        0.354249501554088    0.779356559297806    0.134744869148289  0.0000
  O2     O2        0.836776480854811    0.264273681137478    0.881831689203390  0.0000
  O3     O3        0.670840677409082    0.803490774229350    0.889564821302052  0.0000
  O2     O2        0.854115417572681    0.737137512708788    0.895713959978870  0.0000
  O3     O3        0.648848464073150    0.262446918518078    0.887506567537827  0.0000
  O2     O2        0.147135592012288    0.743164660233536    0.138869738103765  0.0000
  O2     O2        0.368519460839119    0.278272801873278    0.145414415841681  0.0000
  O3     O3        0.631557911315233    0.520502746665212    0.052841955089668  0.0000
  O2     O2        0.875942404867686    0.478582486498632    0.069098337770201  0.0000
  O2     O2        0.373957953367243    0.526640097121489    0.965148394354673  0.0000
  O2     O2        0.142426710950451    0.492688957203578    0.964350143759230  0.0000
  O2     O2        0.745542015691313    0.298529446538686    0.082533017806113  0.0000
  O3     O3        0.768476940420235    0.716127465982834    0.103666613163888  0.0000
  O2     O2        0.265317770946855    0.284683889634417    0.955451237369912  0.0000
  O2     O2        0.251150145715042    0.733002548689304    0.951138901121971  0.0000
