data_c00685.vasp
_audit_creation_method             Generated by GULP
_audit_author_name                 Salvador R. G. Balestra
_symmetry_space_group_name_H-M     'P 1             '
_symmetry_Int_Tables_number        1

loop_
_symmetry_equiv_pos_site_id
_symmetry_equiv_pos_as_xyz
_cell_length_a                       17.1651
_cell_length_b                        7.6210
_cell_length_c                       10.2786
_cell_angle_alpha                   90.1580
_cell_angle_beta                    90.2568
_cell_angle_gamma                   89.9211

loop_
_atom_site_label
_atom_site_type_symbol
_atom_site_fract_x
_atom_site_fract_y
_atom_site_fract_z
_atom_site_charge
  Ge     Ge        0.052090000000021    0.000000000000000    0.372269999999958  0.0000
  Ge     Ge        0.848970669467991    0.317596340810022    0.702772570091041  0.0000
  Ge     Ge        0.670539036570167    0.276852192719228    0.015910101988385  0.0000
  Ge     Ge        0.353440993298025    0.662413499016584    0.963445402432000  0.0000
  Si     Si        0.451656930299686    0.984130569934199    0.361638061305804  0.0000
  Si     Si        0.954450308128911    0.005051491677085    0.635734107653801  0.0000
  Si     Si        0.550987961826184    0.996914269682700    0.620667181007193  0.0000
  Si     Si        0.558701345227788    0.990607845182317    0.112302698254758  0.0000
  Si     Si        0.943044046322260    0.000217093562234    0.123800074027216  0.0000
  Si     Si        0.449206537878761    0.979780033246661    0.869849420751293  0.0000
  Si     Si        0.057032695904504    0.983288375082412    0.891627412255988  0.0000
  Si     Si        0.158274449399118    0.305049376818026    0.279534076725949  0.0000
  Si     Si        0.351033947097348    0.677368179110596    0.273929662831837  0.0000
  Si     Si        0.655004090958022    0.692078328912620    0.716583671300001  0.0000
  Si     Si        0.834533988912965    0.725591987573960    0.713545180605585  0.0000
  Si     Si        0.667875708089735    0.285044013473672    0.705499409523125  0.0000
  Si     Si        0.172591481286912    0.708947517430773    0.267230036501539  0.0000
  Si     Si        0.337956890472579    0.273904045349505    0.278861240214295  0.0000
  Si     Si        0.833796376165481    0.711956426985180    0.017619283829760  0.0000
  Si     Si        0.336390176702854    0.258121439067990    0.974769715082793  0.0000
  Si     Si        0.170750962764629    0.693133744391770    0.963252228082554  0.0000
  Si     Si        0.155879117390072    0.294399798337975    0.978556737271792  0.0000
  Si     Si        0.653101300865075    0.679244270787244    0.017398268086780  0.0000
  Si     Si        0.851330319674684    0.315035755994528    0.015993417728204  0.0000
  O3     O3        0.098999999176446    0.200362158164657    0.367715187987653  0.0000
  O2     O2        0.407862276325782    0.796977465041101    0.362073622549713  0.0000
  O3     O3        0.917945903280490    0.197816036551671    0.620004346589921  0.0000
  O2     O2        0.596594112695272    0.812298442825783    0.633592881152104  0.0000
  O2     O2        0.880210581617146    0.873626653128492    0.634005632809536  0.0000
  O2     O2        0.610619855399966    0.159504870341366    0.623408537416522  0.0000
  O3     O3        0.120783771657186    0.839641334600463    0.348230717147441  0.0000
  O2     O2        0.388405791002484    0.141371941523442    0.366268851760823  0.0000
  O3     O3        0.015584747814824    0.964958924486427    0.525140193805495  0.0000
  O2     O2        0.507850214430323    0.997523838738579    0.483837443278383  0.0000
  O3     O3        0.973204313282203    0.990019521576430    0.269418726094107  0.0000
  O2     O2        0.503252982809685    0.004219863184113    0.234153019220626  0.0000
  O2     O2        0.997789723674635    0.980786729140024    0.773224722772299  0.0000
  O2     O2        0.485903596397259    0.020168649434179    0.730809774722917  0.0000
  O3     O3        0.625367720034610    0.134773539663822    0.119276355417351  0.0000
  O2     O2        0.874222007550991    0.857794423121643    0.107126822734466  0.0000
  O2     O2        0.372988309970697    0.101088424605032    0.891216086708220  0.0000
  O2     O2        0.118978354524741    0.825117870021521    0.877100455440999  0.0000
  O3     O3        0.420784687917239    0.780405107075036    0.876629267254998  0.0000
  O2     O2        0.100784205633952    0.170909497340943    0.891728323976571  0.0000
  O2     O2        0.598248920341220    0.798388686552866    0.107497927966475  0.0000
  O2     O2        0.912880457093851    0.196997797986188    0.095448815051887  0.0000
  O2     O2        0.511586063764452    0.031386665345063    0.980018400595277  0.0000
  O2     O2        0.012819227147446    0.951257925630042    0.026690807437823  0.0000
  O2     O2        0.142528046907277    0.511811236299191    0.293202182613598  0.0000
  O2     O2        0.368316770349176    0.472223557262071    0.301020859848937  0.0000
  O3     O3        0.869152824555835    0.536868266652227    0.679838109349106  0.0000
  O2     O2        0.637097626199128    0.486390349952956    0.695937373213645  0.0000
  O2     O2        0.247472848718131    0.260133323526113    0.318893184035144  0.0000
  O2     O2        0.262353467101156    0.723003734445101    0.312319392004816  0.0000
  O3     O3        0.754765100018040    0.276248161906647    0.650467263656605  0.0000
  O2     O2        0.743403986474991    0.732193739923212    0.673464323302910  0.0000
  O2     O2        0.143004194975298    0.245989385435133    0.129788334671303  0.0000
  O3     O3        0.365409399129581    0.721620647243649    0.124123291405313  0.0000
  O3     O3        0.855053841000848    0.264635110739099    0.865166461144810  0.0000
  O2     O2        0.642917503467542    0.741599204940722    0.867786076749085  0.0000
  O2     O2        0.841522258536823    0.766027512629800    0.867298451980958  0.0000
  O3     O3        0.668215683744784    0.219937490536554    0.853938496138424  0.0000
  O2     O2        0.168889488635989    0.753156627564326    0.114024565261862  0.0000
  O2     O2        0.347311892535719    0.220779370719969    0.128200061058935  0.0000
  O3     O3        0.627790993477775    0.481032939750293    0.033996376111451  0.0000
  O2     O2        0.873186841610463    0.520886193292800    0.037418839660125  0.0000
  O3     O3        0.374648372930449    0.442900697434782    0.940785594677467  0.0000
  O2     O2        0.135087769465701    0.496978406470026    0.949918071081754  0.0000
  O3     O3        0.765596203732499    0.282198682238360    0.068986239697560  0.0000
  O2     O2        0.743491146647381    0.702158835990186    0.058045780725075  0.0000
  O2     O2        0.245131909556084    0.262657214481803    0.939705153429118  0.0000
  O3     O3        0.258570614503372    0.698074900562649    0.913815952739624  0.0000
