data_c00689.vasp
_audit_creation_method             Generated by GULP
_audit_author_name                 Salvador R. G. Balestra
_symmetry_space_group_name_H-M     'P 1             '
_symmetry_Int_Tables_number        1

loop_
_symmetry_equiv_pos_site_id
_symmetry_equiv_pos_as_xyz
_cell_length_a                       17.1333
_cell_length_b                        7.6389
_cell_length_c                       10.3220
_cell_angle_alpha                   89.3580
_cell_angle_beta                    90.6025
_cell_angle_gamma                   90.2560

loop_
_atom_site_label
_atom_site_type_symbol
_atom_site_fract_x
_atom_site_fract_y
_atom_site_fract_z
_atom_site_charge
  Ge     Ge        0.052090000000021    0.000000000000000    0.372269999999958  0.0000
  Ge     Ge        0.842849071680501    0.313512323691788    0.716184877912358  0.0000
  Ge     Ge        0.823302357571724    0.708317982367483    0.034597750522173  0.0000
  Ge     Ge        0.324302492771362    0.279083494201914    0.967188481847360  0.0000
  Si     Si        0.451730685926629    0.988983172278636    0.358865737894338  0.0000
  Si     Si        0.947354330474391    0.009291749621948    0.629075189280817  0.0000
  Si     Si        0.545906977015482    0.990281181033266    0.624048751720227  0.0000
  Si     Si        0.547398022488907    0.988022416316058    0.101966668420522  0.0000
  Si     Si        0.935880614894998    0.993519967131633    0.121362048160752  0.0000
  Si     Si        0.432805367538577    0.995028411784731    0.864758037921856  0.0000
  Si     Si        0.044701744708413    0.996303821280940    0.886654891985828  0.0000
  Si     Si        0.157781476040106    0.309019008716824    0.292261441856255  0.0000
  Si     Si        0.348365962604609    0.683430084248987    0.269753678849768  0.0000
  Si     Si        0.651290545726308    0.685299198953774    0.714610220053437  0.0000
  Si     Si        0.829387387951074    0.725187022419469    0.728013603789009  0.0000
  Si     Si        0.660244447186642    0.285867231224309    0.707118144295258  0.0000
  Si     Si        0.168455076393339    0.711305230158974    0.286649181303003  0.0000
  Si     Si        0.336760562629709    0.278785047339580    0.274764755864736  0.0000
  Si     Si        0.660588837426286    0.277219037819979    0.011108512740344  0.0000
  Si     Si        0.157180587086033    0.708800820275531    0.986621342478279  0.0000
  Si     Si        0.339021477895322    0.683451321062515    0.969628785229540  0.0000
  Si     Si        0.141945082434054    0.308551510732275    0.989747066982025  0.0000
  Si     Si        0.642127705405644    0.670648975190672    0.018859813852539  0.0000
  Si     Si        0.841615831288436    0.304952520754671    0.021817567709400  0.0000
  O3     O3        0.101562415443289    0.197087555522959    0.382283459597674  0.0000
  O2     O2        0.407334870717616    0.802427650551042    0.352275114471319  0.0000
  O3     O3        0.909142839614334    0.200334299876544    0.625940201403544  0.0000
  O2     O2        0.594203157446119    0.810787940451543    0.633336251251025  0.0000
  O2     O2        0.877924619842420    0.869072501282120    0.648395630735747  0.0000
  O2     O2        0.604225651514947    0.155586296528234    0.628801080859417  0.0000
  O3     O3        0.121817190657794    0.837077014690168    0.377886592421982  0.0000
  O2     O2        0.390237052216087    0.148048279626660    0.359543037562212  0.0000
  O3     O3        0.987629197029742    0.970767050827849    0.494855889981713  0.0000
  O2     O2        0.500881755754728    0.995388926778666    0.489428400069548  0.0000
  O3     O3        0.000339319312233    0.988974541901984    0.230390245888924  0.0000
  O2     O2        0.511057800722365    0.011693602341861    0.241479064446514  0.0000
  O2     O2        0.013780008378961    0.994473279524659    0.740313642027335  0.0000
  O2     O2        0.483475301989165    0.998317107802471    0.737302503550096  0.0000
  O2     O2        0.619187899603098    0.123933105399981    0.091718267131101  0.0000
  O3     O3        0.871006364020624    0.844429598797765    0.140406378216601  0.0000
  O3     O3        0.367997087492952    0.143670791012431    0.859059412011995  0.0000
  O2     O2        0.111820085658555    0.849488008802638    0.898378597341370  0.0000
  O2     O2        0.389635780476440    0.807846776592106    0.877027498366885  0.0000
  O2     O2        0.077323774162068    0.190475622788324    0.917767964669252  0.0000
  O2     O2        0.577311464379090    0.788863152342629    0.087407427827048  0.0000
  O2     O2        0.893376939602090    0.182004683001137    0.116288448006744  0.0000
  O2     O2        0.485147838849977    0.037733850963903    0.991037304120037  0.0000
  O2     O2        0.975323835267405    0.947290090342715    0.983560347621411  0.0000
  O2     O2        0.140409371526668    0.512853663032518    0.313497604208174  0.0000
  O2     O2        0.367315900012571    0.478420826512558    0.290645407467599  0.0000
  O3     O3        0.864696546115328    0.533888040235143    0.708732028344457  0.0000
  O2     O2        0.629615298590242    0.484167253779523    0.684560995768473  0.0000
  O2     O2        0.248043420949553    0.266247114357957    0.325223360949907  0.0000
  O2     O2        0.260849886650991    0.725245132500632    0.314568979920954  0.0000
  O3     O3        0.748739895834179    0.273642453034761    0.661327504749850  0.0000
  O2     O2        0.740227498599993    0.722818870494315    0.673362953214455  0.0000
  O2     O2        0.141382099620309    0.259361767133244    0.142278464518809  0.0000
  O2     O2        0.357762803385079    0.733506034483059    0.118604631686827  0.0000
  O3     O3        0.853458503454564    0.245087942613582    0.875261265318014  0.0000
  O2     O2        0.642725199365438    0.722415096145137    0.866931820858859  0.0000
  O3     O3        0.828140983810218    0.780574646788010    0.876462341524457  0.0000
  O2     O2        0.657491548457048    0.234134494782204    0.859021309396581  0.0000
  O2     O2        0.151006690009008    0.764064528068856    0.136560466563473  0.0000
  O3     O3        0.339484508787215    0.219801157933659    0.126841845494614  0.0000
  O2     O2        0.619812889461363    0.464872153837618    0.036536240096233  0.0000
  O3     O3        0.865731543683687    0.503774989796646    0.043617070879216  0.0000
  O3     O3        0.361251677093089    0.486741101266154    0.941895000139847  0.0000
  O2     O2        0.121213172393700    0.514182742767720    0.968008867883605  0.0000
  O2     O2        0.750091867810652    0.286570590367869    0.057613193117058  0.0000
  O3     O3        0.726598498311756    0.703374544246581    0.079817383315412  0.0000
  O3     O3        0.225874006813028    0.271469295350907    0.932243996960691  0.0000
  O2     O2        0.246808413192837    0.709935047117078    0.942589873670954  0.0000
