data_c00688.vasp
_audit_creation_method             Generated by GULP
_audit_author_name                 Salvador R. G. Balestra
_symmetry_space_group_name_H-M     'P 1             '
_symmetry_Int_Tables_number        1

loop_
_symmetry_equiv_pos_site_id
_symmetry_equiv_pos_as_xyz
_cell_length_a                       17.2546
_cell_length_b                        7.6404
_cell_length_c                       10.1898
_cell_angle_alpha                   89.6822
_cell_angle_beta                    90.5727
_cell_angle_gamma                   89.5925

loop_
_atom_site_label
_atom_site_type_symbol
_atom_site_fract_x
_atom_site_fract_y
_atom_site_fract_z
_atom_site_charge
  Ge     Ge        0.052090000000021    0.000000000000000    0.372269999999958  0.0000
  Ge     Ge        0.831295126515263    0.298390374498999    0.706272472902446  0.0000
  Ge     Ge        0.642045770658052    0.359356044673034    0.017433418140780  0.0000
  Ge     Ge        0.830601800257297    0.306181331451448    0.023894136306917  0.0000
  Si     Si        0.450520402569312    0.004465648176150    0.355469691116731  0.0000
  Si     Si        0.947611674771518    0.007717011484018    0.630734467050913  0.0000
  Si     Si        0.545790638124328    0.029559463657482    0.619891891951895  0.0000
  Si     Si        0.550415409484430    0.042819749070101    0.109696919533752  0.0000
  Si     Si        0.940674603894725    0.013257993342769    0.124476955941414  0.0000
  Si     Si        0.437258303419550    0.023602851294692    0.867918022500651  0.0000
  Si     Si        0.049007513539966    0.036093896441218    0.888032291182076  0.0000
  Si     Si        0.164363972145708    0.299908462446539    0.261835041490718  0.0000
  Si     Si        0.341434652513203    0.710520813513033    0.264386895210386  0.0000
  Si     Si        0.662700814409808    0.738404460414939    0.696494900383918  0.0000
  Si     Si        0.839411116705117    0.699277299025801    0.694105052560383  0.0000
  Si     Si        0.645863444678359    0.337290523586687    0.708043909535742  0.0000
  Si     Si        0.162380881026338    0.705375826432153    0.275564773841571  0.0000
  Si     Si        0.342022798678786    0.307796669391573    0.254979071982630  0.0000
  Si     Si        0.842556581815862    0.706723590711601    0.006807517435961  0.0000
  Si     Si        0.336647656138869    0.330977268422412    0.947624290835268  0.0000
  Si     Si        0.152409669315437    0.725387977513926    0.972358040591881  0.0000
  Si     Si        0.332554663706810    0.728288327903894    0.958905626142071  0.0000
  Si     Si        0.158518211165438    0.325382747800070    0.956531781219538  0.0000
  Si     Si        0.665612124599677    0.762095961413539    0.006176704212556  0.0000
  O3     O3        0.108296526349217    0.181723283176397    0.345088662368844  0.0000
  O2     O2        0.396472105644740    0.833262723140835    0.351015799964315  0.0000
  O3     O3        0.884037531865661    0.158733268261808    0.608915337388469  0.0000
  O2     O2        0.608941856491967    0.872532264690069    0.614493187896044  0.0000
  O2     O2        0.901904074661866    0.823645843871236    0.626680072534840  0.0000
  O2     O2        0.589748214628961    0.215325534175105    0.619620501102737  0.0000
  O3     O3        0.110564900569733    0.816119367016813    0.371646250802222  0.0000
  O2     O2        0.400122821725994    0.179322517040925    0.331073911142422  0.0000
  O3     O3        0.015355193471425    0.014799517270403    0.527663388743802  0.0000
  O2     O2        0.488887183232053    0.017569252489197    0.497063332323717  0.0000
  O3     O3        0.973995689594144    0.979503710757626    0.268333330130579  0.0000
  O2     O2        0.519027711282194    0.987436116365504    0.251020705264904  0.0000
  O2     O2        0.985628150377128    0.032893591434832    0.774414127761862  0.0000
  O2     O2        0.493652575064940    0.006497711176549    0.747246882034781  0.0000
  O3     O3        0.576666027796158    0.242524068226949    0.109745578675322  0.0000
  O2     O2        0.905477257337111    0.835531525116640    0.066026076270221  0.0000
  O2     O2        0.389698730424191    0.206734594113053    0.858763749163621  0.0000
  O2     O2        0.097512530860894    0.854252864767215    0.888337740534960  0.0000
  O2     O2        0.377044729666096    0.863051404870028    0.866401015568267  0.0000
  O2     O2        0.106512401871724    0.200179616643565    0.865855751732781  0.0000
  O2     O2        0.625147335730228    0.924030107919755    0.076636348997245  0.0000
  O3     O3        0.877748458794051    0.165930238121645    0.131243606888300  0.0000
  O2     O2        0.484325407548617    0.008782532420536    0.002614888143763  0.0000
  O2     O2        0.009216996029332    0.071273901582283    0.027396549721532  0.0000
  O2     O2        0.144024297963935    0.501204469909273    0.292706089774363  0.0000
  O2     O2        0.363696335029324    0.507596684788652    0.289742797885173  0.0000
  O3     O3        0.847830144606064    0.505100967103781    0.641437162140689  0.0000
  O2     O2        0.643427108339243    0.538838356563446    0.656258830347498  0.0000
  O2     O2        0.254577871047574    0.264211086076850    0.298486744673301  0.0000
  O2     O2        0.252696379690424    0.742263310298741    0.305105805516060  0.0000
  O3     O3        0.732532709877524    0.262951530412369    0.701328922081502  0.0000
  O2     O2        0.752828738270627    0.776467837820546    0.665301742327631  0.0000
  O2     O2        0.152547265824077    0.263047057433763    0.107345658632909  0.0000
  O2     O2        0.351459527000639    0.761465705322683    0.111832989418887  0.0000
  O1     O1        0.858940980400141    0.267204853967232    0.866327054603028  0.0000
  O2     O2        0.647896910015194    0.765477098001032    0.850574648047622  0.0000
  O2     O2        0.852685157319666    0.683229300954588    0.850852129850294  0.0000
  O3     O3        0.615281902712847    0.330773063362328    0.855309776668621  0.0000
  O2     O2        0.141372711866213    0.766466707697358    0.126323651306310  0.0000
  O2     O2        0.350427192479538    0.278927755536484    0.099486851226507  0.0000
  O3     O3        0.637186487235031    0.577444582633477    0.061248481953134  0.0000
  O3     O3        0.852545463235601    0.518529701501856    0.070955944471416  0.0000
  O2     O2        0.359895815748789    0.532126994102922    0.921945180698260  0.0000
  O2     O2        0.128837418276862    0.525502297222283    0.941060254489305  0.0000
  O1     O1        0.733349688353613    0.280034344111949    0.040497974662178  0.0000
  O2     O2        0.757056518415985    0.785185612736376    0.033401107443120  0.0000
  O2     O2        0.246779361386264    0.306919832747804    0.909102259586140  0.0000
  O2     O2        0.241232119085733    0.754207290752444    0.932532866626492  0.0000
