data_c00629.vasp
_audit_creation_method             Generated by GULP
_audit_author_name                 Salvador R. G. Balestra
_symmetry_space_group_name_H-M     'P 1             '
_symmetry_Int_Tables_number        1

loop_
_symmetry_equiv_pos_site_id
_symmetry_equiv_pos_as_xyz
_cell_length_a                       17.2020
_cell_length_b                        7.6187
_cell_length_c                       10.2277
_cell_angle_alpha                   89.6258
_cell_angle_beta                    89.8620
_cell_angle_gamma                   90.1051

loop_
_atom_site_label
_atom_site_type_symbol
_atom_site_fract_x
_atom_site_fract_y
_atom_site_fract_z
_atom_site_charge
  Ge     Ge        0.052090000000021    0.000000000000000    0.372269999999958  0.0000
  Ge     Ge        0.337791219212515    0.747803416295880    0.265779498356218  0.0000
  Ge     Ge        0.357897958595319    0.326114411420130    0.271589666329858  0.0000
  Ge     Ge        0.849241761418313    0.672655657330016    0.027707172127505  0.0000
  Si     Si        0.460227595109742    0.020622783886912    0.355882602677372  0.0000
  Si     Si        0.954077016285725    0.001856774267418    0.639157394561033  0.0000
  Si     Si        0.556894858377534    0.008392083429530    0.611940518324157  0.0000
  Si     Si        0.553991003246385    0.990738662508910    0.092936427184408  0.0000
  Si     Si        0.944078236887229    0.986680168126654    0.129113021407183  0.0000
  Si     Si        0.443220128603404    0.009148409611150    0.850333747165442  0.0000
  Si     Si        0.058072391970878    0.997030028188845    0.891986925926082  0.0000
  Si     Si        0.175524193696277    0.285912377903411    0.275113168823253  0.0000
  Si     Si        0.838668027731487    0.291749291177027    0.707162135406798  0.0000
  Si     Si        0.669983497065733    0.714004804804335    0.714023146579593  0.0000
  Si     Si        0.848023573276643    0.695592684477509    0.714609726501325  0.0000
  Si     Si        0.660108011526796    0.311226700828890    0.704459094672918  0.0000
  Si     Si        0.157464688856178    0.693712562090030    0.269701518949962  0.0000
  Si     Si        0.654570480290220    0.302360897435392    0.009068863481237  0.0000
  Si     Si        0.350908903869182    0.318747631094252    0.961866286847878  0.0000
  Si     Si        0.157096822739977    0.683986544190827    0.963397574186094  0.0000
  Si     Si        0.335295455229220    0.722817350860949    0.954382096553250  0.0000
  Si     Si        0.171446445680463    0.286281061841294    0.969353887754073  0.0000
  Si     Si        0.667364548286234    0.698824143051235    0.021044735727202  0.0000
  Si     Si        0.833963562205832    0.269281951744312    0.013416087824915  0.0000
  O3     O3        0.122485543937820    0.159174072509142    0.360327507369192  0.0000
  O3     O3        0.385641956490947    0.894632406697630    0.363008138561327  0.0000
  O2     O2        0.893006150550966    0.162790793066782    0.623848629581701  0.0000
  O2     O2        0.615808203089388    0.848827571474096    0.637056740467541  0.0000
  O2     O2        0.906240027002948    0.819047901373730    0.631724755951962  0.0000
  O2     O2        0.602840606071221    0.192885384201077    0.618564915315151  0.0000
  O3     O3        0.090457505804267    0.794824696480606    0.344560300076572  0.0000
  O3     O3        0.428072169220037    0.216650706256893    0.360071468653179  0.0000
  O3     O3        0.018594851381547    0.008777355696647    0.529859934614737  0.0000
  O2     O2        0.523490986049462    0.986531464109356    0.467314697626293  0.0000
  O3     O3        0.973272962082466    0.033998079149862    0.271494986743292  0.0000
  O2     O2        0.498858464490980    0.974709357715330    0.216681066360183  0.0000
  O2     O2        0.997410843597430    0.020986266027354    0.777098429439649  0.0000
  O2     O2        0.484047718783353    0.005140472646327    0.709950957887996  0.0000
  O2     O2        0.598028408642823    0.178017740155104    0.092955597288304  0.0000
  O3     O3        0.913972361693667    0.787798372376486    0.121305740266806  0.0000
  O2     O2        0.404744362113722    0.200911565450447    0.867874194192763  0.0000
  O2     O2        0.097709685097362    0.804729863189943    0.881411178348570  0.0000
  O2     O2        0.378884176456045    0.854567879367544    0.854567376339323  0.0000
  O2     O2        0.124350428845134    0.146968592488426    0.883458334880117  0.0000
  O2     O2        0.615493724559294    0.832893033306526    0.102646283937485  0.0000
  O2     O2        0.870873260955100    0.107970594229081    0.091123443011740  0.0000
  O2     O2        0.505954855797677    0.967443217744977    0.960991294595256  0.0000
  O2     O2        0.015390636402765    0.019910565923775    0.030146802060461  0.0000
  O2     O2        0.149090848885409    0.486440820355676    0.296157247649349  0.0000
  O1     O1        0.373688522601805    0.542488441571921    0.294434250096848  0.0000
  O2     O2        0.866920995345719    0.491847869963459    0.685160553609875  0.0000
  O2     O2        0.641464732432671    0.516569740482238    0.681973372054233  0.0000
  O3     O3        0.264436581172349    0.266759820732557    0.317098238457456  0.0000
  O3     O3        0.241619496885662    0.757971677700925    0.314279723302831  0.0000
  O2     O2        0.749000140351839    0.272259093228356    0.662894705066510  0.0000
  O2     O2        0.759588110172996    0.737578764677678    0.670411503375662  0.0000
  O2     O2        0.166349679647668    0.235985536081355    0.122198630176640  0.0000
  O3     O3        0.344641433923275    0.793230829121222    0.100183751047042  0.0000
  O2     O2        0.844266489046710    0.239171040057662    0.858911344252164  0.0000
  O2     O2        0.666279428303066    0.751374510150935    0.868088530028217  0.0000
  O3     O3        0.859926805611617    0.734803978683815    0.866412388770282  0.0000
  O2     O2        0.645552680834077    0.259487376451530    0.855675989120862  0.0000
  O2     O2        0.149990803331828    0.735002883475222    0.114932144435465  0.0000
  O3     O3        0.367947795175297    0.264601691162862    0.109414282187710  0.0000
  O2     O2        0.631690000879713    0.503049212255184    0.038318966637473  0.0000
  O3     O3        0.871829454558826    0.453398433229962    0.050290074989887  0.0000
  O2     O2        0.370137336097736    0.525747701733333    0.942925406755746  0.0000
  O2     O2        0.135411746713950    0.479679869593441    0.943014717573382  0.0000
  O2     O2        0.743150815285654    0.271045517810284    0.051436215903743  0.0000
  O3     O3        0.754041632613273    0.705402478419201    0.074319492717845  0.0000
  O2     O2        0.261065655571081    0.283512048493773    0.925134283936341  0.0000
  O2     O2        0.244683079065632    0.719165698500730    0.914566427797024  0.0000
