data_c00636.vasp
_audit_creation_method             Generated by GULP
_audit_author_name                 Salvador R. G. Balestra
_symmetry_space_group_name_H-M     'P 1             '
_symmetry_Int_Tables_number        1

loop_
_symmetry_equiv_pos_site_id
_symmetry_equiv_pos_as_xyz
_cell_length_a                       17.2014
_cell_length_b                        7.6398
_cell_length_c                       10.2387
_cell_angle_alpha                   89.5880
_cell_angle_beta                    89.6149
_cell_angle_gamma                   90.0298

loop_
_atom_site_label
_atom_site_type_symbol
_atom_site_fract_x
_atom_site_fract_y
_atom_site_fract_z
_atom_site_charge
  Ge     Ge        0.052090000000021    0.000000000000000    0.372269999999958  0.0000
  Ge     Ge        0.339180135882652    0.729174268231175    0.280860791577986  0.0000
  Ge     Ge        0.654182771447980    0.340663778215221    0.026239801648696  0.0000
  Ge     Ge        0.171027677879777    0.304021143280905    0.963077128394716  0.0000
  Si     Si        0.456111757795249    0.013996679597751    0.360763688417203  0.0000
  Si     Si        0.950447362022139    0.012481177827584    0.636455866439927  0.0000
  Si     Si        0.554453762464012    0.025477695135230    0.618557684645828  0.0000
  Si     Si        0.556861129202200    0.023252830053690    0.107368403561241  0.0000
  Si     Si        0.946926431173080    0.022249789872433    0.120050928026657  0.0000
  Si     Si        0.446848427850708    0.027828166121800    0.865556860167590  0.0000
  Si     Si        0.058798423355175    0.016727357017361    0.883307117813671  0.0000
  Si     Si        0.173402168627769    0.285206355018769    0.270419687638872  0.0000
  Si     Si        0.836680570782271    0.308059482051231    0.714131149760901  0.0000
  Si     Si        0.666528562274313    0.730665830431428    0.711140352955702  0.0000
  Si     Si        0.844817994735467    0.708635277769131    0.705431244922805  0.0000
  Si     Si        0.657855445326660    0.326710217780399    0.715391031203088  0.0000
  Si     Si        0.157174733223360    0.693485706240951    0.278336475687557  0.0000
  Si     Si        0.351901797385861    0.320987915063215    0.269297668101333  0.0000
  Si     Si        0.849733322933206    0.712454264741269    0.010764177027793  0.0000
  Si     Si        0.352643978723687    0.341455377846234    0.962408864540943  0.0000
  Si     Si        0.157638085787159    0.708175534008116    0.975874217088297  0.0000
  Si     Si        0.338307072708508    0.739822919634364    0.970630338423440  0.0000
  Si     Si        0.670704386445121    0.743809897864011    0.017053161840514  0.0000
  Si     Si        0.836949270921017    0.315783347858855    0.021262298960736  0.0000
  O3     O3        0.123046547903622    0.158595522291535    0.359954715221377  0.0000
  O3     O3        0.393494106298254    0.861795977838423    0.379673322844930  0.0000
  O2     O2        0.889946946000728    0.174488674734719    0.633790418291247  0.0000
  O2     O2        0.612717979335490    0.860763616172992    0.628584579398235  0.0000
  O2     O2        0.901830287971738    0.831814148174725    0.620272771982445  0.0000
  O2     O2        0.601560318486471    0.206554573630361    0.629757778011426  0.0000
  O3     O3        0.093791926884253    0.794847795479037    0.362508435803750  0.0000
  O2     O2        0.410928038908496    0.197323390656567    0.346691865040639  0.0000
  O3     O3        0.013833872140482    0.029612409970514    0.525826153624602  0.0000
  O2     O2        0.516158829290182    0.023908826652042    0.477709421315923  0.0000
  O3     O3        0.975844079490888    0.022933519159545    0.266438395567092  0.0000
  O2     O2        0.504792642194534    0.970183497916218    0.230386870046844  0.0000
  O2     O2        0.994042641713405    0.010677165960583    0.774295765148754  0.0000
  O2     O2        0.485658673392633    0.011274911198754    0.724385472556779  0.0000
  O3     O3        0.588379747465501    0.219698813880131    0.116619597034168  0.0000
  O2     O2        0.907486513968432    0.835396353525531    0.089733399065308  0.0000
  O2     O2        0.412998443879086    0.224078044099989    0.880335817998096  0.0000
  O2     O2        0.104350877136929    0.832554151149425    0.887507539568656  0.0000
  O2     O2        0.378975475240129    0.882507298986228    0.876423058157961  0.0000
  O3     O3        0.120206525274821    0.170642853386398    0.859729662922006  0.0000
  O2     O2        0.632001561129381    0.897087406332539    0.100577275304383  0.0000
  O2     O2        0.886074683410489    0.179770836656657    0.105364125227102  0.0000
  O2     O2        0.509524801876980    0.988654536606482    0.975961192353206  0.0000
  O2     O2        0.019564971520538    0.056467804960210    0.023808271095635  0.0000
  O2     O2        0.143703060147918    0.485025638368650    0.283751740954731  0.0000
  O3     O3        0.372736197109127    0.518377923117424    0.300418977287833  0.0000
  O2     O2        0.865059619095009    0.505379823080802    0.680566710444194  0.0000
  O2     O2        0.638277269050308    0.531256938056429    0.690535621729805  0.0000
  O2     O2        0.263665447436733    0.276828341042726    0.313662449528985  0.0000
  O3     O3        0.242935215409297    0.739231584176702    0.327679243135908  0.0000
  O2     O2        0.746888931878759    0.287317877327192    0.673274265563798  0.0000
  O2     O2        0.756052063462942    0.748223993061678    0.664349947186760  0.0000
  O3     O3        0.166438803915121    0.225943982334404    0.121211100270705  0.0000
  O3     O3        0.347906624090160    0.795160561529428    0.119712096105394  0.0000
  O2     O2        0.842212607435110    0.268118062043832    0.868245122428826  0.0000
  O2     O2        0.661196665580343    0.781041264315588    0.862774614653457  0.0000
  O2     O2        0.857249809123589    0.754045058899540    0.857162152429848  0.0000
  O3     O3        0.643758223364707    0.279248273757821    0.865572349293026  0.0000
  O2     O2        0.148626297292791    0.759824481501191    0.128152658466156  0.0000
  O2     O2        0.358678474505869    0.285830723737357    0.114244320579224  0.0000
  O3     O3        0.632594219922845    0.558137011194150    0.050257707562267  0.0000
  O2     O2        0.871774185591438    0.511020191621119    0.041034268492655  0.0000
  O2     O2        0.375175790626307    0.546787702187737    0.947228214251327  0.0000
  O3     O3        0.131946233184318    0.511300925347115    0.952818607390184  0.0000
  O3     O3        0.749240236527254    0.306368662411445    0.070915506991622  0.0000
  O2     O2        0.761212132892786    0.743977568098502    0.055699557925683  0.0000
  O3     O3        0.266662182444848    0.309161213909448    0.911735502506070  0.0000
  O2     O2        0.247531287643088    0.732605912996321    0.933964257611773  0.0000
