data_c00666.vasp
_audit_creation_method             Generated by GULP
_audit_author_name                 Salvador R. G. Balestra
_symmetry_space_group_name_H-M     'P 1             '
_symmetry_Int_Tables_number        1

loop_
_symmetry_equiv_pos_site_id
_symmetry_equiv_pos_as_xyz
_cell_length_a                       17.2824
_cell_length_b                        7.6701
_cell_length_c                       10.1866
_cell_angle_alpha                   90.3599
_cell_angle_beta                    90.3176
_cell_angle_gamma                   90.1841

loop_
_atom_site_label
_atom_site_type_symbol
_atom_site_fract_x
_atom_site_fract_y
_atom_site_fract_z
_atom_site_charge
  Ge     Ge        0.052090000000021    0.000000000000000    0.372269999999958  0.0000
  Ge     Ge        0.838644534338732    0.288581200575556    0.705722745798756  0.0000
  Ge     Ge        0.662382111335120    0.721489895286790    0.702747786147994  0.0000
  Ge     Ge        0.334005291202784    0.702841366557238    0.949348294172306  0.0000
  Si     Si        0.449880130498449    0.013290335682121    0.360037575636318  0.0000
  Si     Si        0.954752786883953    0.996749829339500    0.635740064895289  0.0000
  Si     Si        0.548491909842959    0.013976113086693    0.618350432333771  0.0000
  Si     Si        0.554744881545499    0.004165412980871    0.112857119514906  0.0000
  Si     Si        0.936288489585854    0.000259650206528    0.132682512722795  0.0000
  Si     Si        0.443918615472032    0.995778357660450    0.870465661086698  0.0000
  Si     Si        0.050460362178052    0.994862703358524    0.896994272313274  0.0000
  Si     Si        0.166370611860982    0.296335585464397    0.273500879612083  0.0000
  Si     Si        0.339671892291472    0.715859596963925    0.262696101960980  0.0000
  Si     Si        0.844540750489092    0.700421149096735    0.709779436542192  0.0000
  Si     Si        0.657647610400027    0.311106643631986    0.696463249812522  0.0000
  Si     Si        0.163029577370827    0.698950300697965    0.267737783505282  0.0000
  Si     Si        0.344235373325256    0.311485107165276    0.265573479736673  0.0000
  Si     Si        0.653570460117324    0.313924239034836    0.006661423618336  0.0000
  Si     Si        0.840711251478707    0.691358928429532    0.016816094870192  0.0000
  Si     Si        0.341804768661297    0.301046682417076    0.959442731287525  0.0000
  Si     Si        0.153698161843972    0.685685003005779    0.960087017101429  0.0000
  Si     Si        0.162111080988779    0.288257756110923    0.968673770199952  0.0000
  Si     Si        0.659729931553710    0.711379554478343    0.013597824506264  0.0000
  Si     Si        0.833210372520949    0.292925639674413    0.018967952831815  0.0000
  O3     O3        0.112096691605787    0.178793345336021    0.360797343486305  0.0000
  O2     O2        0.395311701551658    0.843952844815756    0.345052019062388  0.0000
  O3     O3        0.898528529972078    0.160424812844381    0.613222022959102  0.0000
  O3     O3        0.605923297340430    0.851935781073503    0.605919790807905  0.0000
  O2     O2        0.903758787136052    0.820012313298441    0.629175123355931  0.0000
  O2     O2        0.597880054307303    0.192268085842190    0.614023617178276  0.0000
  O3     O3        0.103969621608989    0.812389752934869    0.348285386961617  0.0000
  O2     O2        0.401243078904672    0.191314864750922    0.349253432776979  0.0000
  O3     O3        0.022660765911328    0.992744834503877    0.533092296178179  0.0000
  O2     O2        0.485020919707971    0.010377155656272    0.504788642858833  0.0000
  O3     O3        0.968913393696274    0.007527178719815    0.278687582365955  0.0000
  O2     O2        0.520180121605261    0.011036760466379    0.257860749622598  0.0000
  O2     O2        0.989559778997580    0.017630624167531    0.781820426404889  0.0000
  O2     O2        0.505938112312551    0.004593453805702    0.757119006992272  0.0000
  O2     O2        0.596454442567211    0.187897339429511    0.084512336629280  0.0000
  O2     O2        0.892229942827107    0.817184874297624    0.107836538456146  0.0000
  O2     O2        0.391891628541708    0.169672578822158    0.872732781395306  0.0000
  O2     O2        0.091410921270898    0.805907689463425    0.885876775958199  0.0000
  O3     O3        0.387341969793091    0.833612506792822    0.848703434445397  0.0000
  O2     O2        0.114243082795650    0.148095833490583    0.884082903833205  0.0000
  O2     O2        0.615249502630965    0.844832176214903    0.108653014350909  0.0000
  O2     O2        0.878275760936021    0.161914016351809    0.114160859103232  0.0000
  O2     O2        0.486281827698614    0.968785569769463    0.009796627886530  0.0000
  O2     O2        0.009522580185510    0.016006385261243    0.037041857939537  0.0000
  O2     O2        0.143084703421032    0.497216249666511    0.293848308412099  0.0000
  O2     O2        0.365193416526557    0.515159563763739    0.285973537779356  0.0000
  O3     O3        0.852486489172573    0.503411080730352    0.662607238149294  0.0000
  O3     O3        0.649925182414683    0.508533776438835    0.651891579577162  0.0000
  O2     O2        0.256657176466260    0.273114444453677    0.311219516428285  0.0000
  O2     O2        0.251366648663076    0.740403863892742    0.311297061157594  0.0000
  O3     O3        0.743113947812738    0.238601957856878    0.673429355743375  0.0000
  O3     O3        0.758844279085551    0.772894116616893    0.686476712036509  0.0000
  O2     O2        0.154405108813758    0.240153516531282    0.121680052683477  0.0000
  O3     O3        0.344517318797322    0.764732519215752    0.111145731279598  0.0000
  O3     O3        0.856643161574371    0.255612387905356    0.870541225371098  0.0000
  O3     O3        0.636189210323603    0.749833443387696    0.864829155710768  0.0000
  O2     O2        0.864181300854977    0.713445402468941    0.865524197809299  0.0000
  O2     O2        0.638749967447791    0.297764569327220    0.851680605780950  0.0000
  O2     O2        0.155064614872115    0.739961913313925    0.113284272055544  0.0000
  O2     O2        0.354069988896164    0.260328090345610    0.113286511243617  0.0000
  O2     O2        0.637082401542953    0.512851795342850    0.051276354972850  0.0000
  O2     O2        0.855348277700438    0.491766146210525    0.059333003882283  0.0000
  O3     O3        0.368235500554133    0.494106315956229    0.927647513057673  0.0000
  O2     O2        0.129444977063638    0.482489430828188    0.942507149092476  0.0000
  O2     O2        0.741741042131800    0.262636352674750    0.038370867463302  0.0000
  O2     O2        0.751142221749411    0.740262733861967    0.033475970537232  0.0000
  O2     O2        0.251065634643032    0.279015603574261    0.924264108814035  0.0000
  O3     O3        0.238185974984842    0.714680317517603    0.902437923305744  0.0000
