data_c00749.vasp
_audit_creation_method             Generated by GULP
_audit_author_name                 Salvador R. G. Balestra
_symmetry_space_group_name_H-M     'P 1             '
_symmetry_Int_Tables_number        1

loop_
_symmetry_equiv_pos_site_id
_symmetry_equiv_pos_as_xyz
_cell_length_a                       17.0740
_cell_length_b                        7.6085
_cell_length_c                       10.3223
_cell_angle_alpha                   90.7021
_cell_angle_beta                    90.0701
_cell_angle_gamma                   89.3956

loop_
_atom_site_label
_atom_site_type_symbol
_atom_site_fract_x
_atom_site_fract_y
_atom_site_fract_z
_atom_site_charge
  Ge     Ge        0.052090000000021    0.000000000000000    0.372269999999958  0.0000
  Ge     Ge        0.668650463560921    0.270773135608805    0.015730723192546  0.0000
  Ge     Ge        0.336411427864486    0.232545658851228    0.974260083029580  0.0000
  Ge     Ge        0.360121214063754    0.643796001254350    0.965716822110808  0.0000
  Si     Si        0.451678737480615    0.972104844496099    0.365464326352928  0.0000
  Si     Si        0.955623085504621    0.981651006370124    0.639837116967449  0.0000
  Si     Si        0.556579279828720    0.977824149079770    0.617999448478987  0.0000
  Si     Si        0.554905774717873    0.989544771474421    0.112035013855220  0.0000
  Si     Si        0.943727184259259    0.987630190819615    0.124009812902341  0.0000
  Si     Si        0.451094902846953    0.958189931620452    0.866465525390416  0.0000
  Si     Si        0.058785871396341    0.977722036984947    0.894091715111967  0.0000
  Si     Si        0.156744854465120    0.306691364039270    0.279835579805747  0.0000
  Si     Si        0.353842332786266    0.664098608132332    0.272444035281283  0.0000
  Si     Si        0.849138488803034    0.292967570897859    0.713799998553230  0.0000
  Si     Si        0.659257116024683    0.673238632323290    0.709464032577251  0.0000
  Si     Si        0.839732330521809    0.694949792092076    0.713440687806678  0.0000
  Si     Si        0.669845163075763    0.265834486960957    0.708624321501353  0.0000
  Si     Si        0.175116149573529    0.708057256891427    0.269044637286702  0.0000
  Si     Si        0.336168205691151    0.257851787076315    0.281145771066397  0.0000
  Si     Si        0.834576233433509    0.701454833573210    0.015669332837539  0.0000
  Si     Si        0.175681420750130    0.691150252528637    0.966510248294569  0.0000
  Si     Si        0.153473659695040    0.295500989028392    0.977650093376701  0.0000
  Si     Si        0.652456321447819    0.676121596417480    0.009071066483009  0.0000
  Si     Si        0.851111816528128    0.304129300350930    0.019063329988030  0.0000
  O3     O3        0.094298247874877    0.204660294889653    0.363094881276461  0.0000
  O2     O2        0.411101456271192    0.781169595105309    0.362395415014672  0.0000
  O2     O2        0.909790405868213    0.168950172627120    0.636120424701694  0.0000
  O2     O2        0.602777182370607    0.791364538979838    0.620908349087695  0.0000
  O2     O2        0.891554823299181    0.826420706933268    0.630073354731766  0.0000
  O2     O2        0.617964539922037    0.137672846230162    0.619050966198007  0.0000
  O3     O3        0.125545683735364    0.846986771840264    0.349286927926272  0.0000
  O2     O2        0.386532591338942    0.128121515464820    0.372518717840086  0.0000
  O3     O3        0.016388472603637    0.969310188666477    0.525295574539488  0.0000
  O2     O2        0.506346774223520    0.986217906636284    0.489330458930671  0.0000
  O3     O3        0.973740631490724    0.977151862162021    0.268832368945960  0.0000
  O2     O2        0.505748928937201    0.996900184188056    0.241561958654099  0.0000
  O2     O2        0.002248191664006    0.959066067507353    0.773127188565649  0.0000
  O2     O2        0.497406445729134    0.999201746697797    0.737179873519237  0.0000
  O3     O3        0.620971062735741    0.134969382318869    0.118786061918527  0.0000
  O2     O2        0.873813555908373    0.848885073809216    0.105044202912899  0.0000
  O3     O3        0.370092345208801    0.066028670122148    0.875040157235816  0.0000
  O2     O2        0.128626519586646    0.833895328095595    0.882049834087637  0.0000
  O3     O3        0.429457258802379    0.755268823225646    0.877601808937584  0.0000
  O2     O2        0.092457409010648    0.175297257850776    0.898387417915677  0.0000
  O2     O2        0.595638299732244    0.798578812002607    0.094587303738574  0.0000
  O2     O2        0.913360190602801    0.185467474017586    0.095716626814311  0.0000
  O2     O2        0.499571862816526    0.034839665062827    0.989886715558990  0.0000
  O2     O2        0.013529043078536    0.935417183084624    0.026438116736464  0.0000
  O2     O2        0.140360486696085    0.514631615821422    0.293210781187627  0.0000
  O2     O2        0.370547375235747    0.455611981490914    0.289009474826767  0.0000
  O2     O2        0.869392568381230    0.495685671824283    0.686087891424737  0.0000
  O2     O2        0.640642156295409    0.467258283018527    0.690644337481553  0.0000
  O2     O2        0.245410797870384    0.260840597263982    0.325811259503046  0.0000
  O2     O2        0.265214883399022    0.709592123202091    0.315750720322415  0.0000
  O2     O2        0.760945752338859    0.251223516594377    0.666897074165072  0.0000
  O2     O2        0.748957740140155    0.711700345125406    0.671609549141661  0.0000
  O2     O2        0.147109534750640    0.247337612968581    0.129579415916446  0.0000
  O3     O3        0.368373046842168    0.714878526032179    0.124925437228361  0.0000
  O2     O2        0.855193079674669    0.256433099166998    0.866555283030087  0.0000
  O2     O2        0.643111640207947    0.729483065275929    0.858412690196085  0.0000
  O2     O2        0.846832781299236    0.745855952892161    0.864995798139980  0.0000
  O3     O3        0.661664826659575    0.205543139992238    0.855755702433450  0.0000
  O2     O2        0.174546500455240    0.752822441292083    0.116828832175205  0.0000
  O3     O3        0.341851210917150    0.182506978778236    0.136475524346934  0.0000
  O3     O3        0.628016397861904    0.478582059860263    0.030451002948565  0.0000
  O2     O2        0.871623992851442    0.509277609264058    0.044199329093116  0.0000
  O1     O1        0.382893021399345    0.427107095754352    0.948256646447402  0.0000
  O2     O2        0.133938593616791    0.501149255624586    0.953279958736733  0.0000
  O3     O3        0.764387762060416    0.268775712725056    0.067333018742514  0.0000
  O2     O2        0.742824144834881    0.701294637513902    0.050116246738395  0.0000
  O3     O3        0.240044347840575    0.258492979968121    0.928748860037580  0.0000
  O3     O3        0.264071675629740    0.679911080137979    0.917184406673999  0.0000
