data_c00733.vasp
_audit_creation_method             Generated by GULP
_audit_author_name                 Salvador R. G. Balestra
_symmetry_space_group_name_H-M     'P 1             '
_symmetry_Int_Tables_number        1

loop_
_symmetry_equiv_pos_site_id
_symmetry_equiv_pos_as_xyz
_cell_length_a                       17.1365
_cell_length_b                        7.6043
_cell_length_c                       10.3222
_cell_angle_alpha                   90.3390
_cell_angle_beta                    90.5988
_cell_angle_gamma                   89.7470

loop_
_atom_site_label
_atom_site_type_symbol
_atom_site_fract_x
_atom_site_fract_y
_atom_site_fract_z
_atom_site_charge
  Ge     Ge        0.052090000000021    0.000000000000000    0.372269999999958  0.0000
  Ge     Ge        0.648846553720721    0.666946095699979    0.708430129178747  0.0000
  Ge     Ge        0.169213044440538    0.737429526562277    0.977649430305110  0.0000
  Ge     Ge        0.147139737204931    0.323356144672174    0.970120029602836  0.0000
  Si     Si        0.452755008438029    0.983971872344662    0.362903264421672  0.0000
  Si     Si        0.946691571406854    0.984113600454499    0.631009138015165  0.0000
  Si     Si        0.543614012487729    0.975362127980565    0.627818132481470  0.0000
  Si     Si        0.561124207368872    0.991165093874376    0.119309932801134  0.0000
  Si     Si        0.946014257434457    0.991333969900746    0.116965604495373  0.0000
  Si     Si        0.445061494933924    0.988498586956162    0.883988738437743  0.0000
  Si     Si        0.053016351829268    0.010686580691671    0.878450211587876  0.0000
  Si     Si        0.156403759025427    0.305047342565195    0.272366999730315  0.0000
  Si     Si        0.351019657718848    0.673413403712940    0.278453009808624  0.0000
  Si     Si        0.842785459403196    0.290827875707469    0.713092325470215  0.0000
  Si     Si        0.831925849672942    0.693849207854943    0.703991369053331  0.0000
  Si     Si        0.662501618272392    0.256731769389813    0.720404697053710  0.0000
  Si     Si        0.173202377777088    0.717162731246284    0.280396426400124  0.0000
  Si     Si        0.334500396988587    0.272832071195239    0.271471683267308  0.0000
  Si     Si        0.669624126027270    0.275859987597024    0.022535706584002  0.0000
  Si     Si        0.834166550103507    0.703262167864650    0.008530164782529  0.0000
  Si     Si        0.330600849995497    0.278641331475915    0.966820254913690  0.0000
  Si     Si        0.351033487849288    0.672947720008155    0.973951882594755  0.0000
  Si     Si        0.654382152456412    0.677293706746119    0.016350884608662  0.0000
  Si     Si        0.849628314023406    0.304134004740877    0.014661764149191  0.0000
  O3     O3        0.097269521997600    0.202116319785459    0.362448010103696  0.0000
  O2     O2        0.413238070589082    0.791370234693132    0.357124646661392  0.0000
  O2     O2        0.897819317309509    0.166591686434201    0.627344323053795  0.0000
  O3     O3        0.580357584883470    0.782538687372649    0.620716591885832  0.0000
  O2     O2        0.886522213292305    0.821260229399087    0.621098640590404  0.0000
  O2     O2        0.616644072461042    0.108229801439881    0.640701564467495  0.0000
  O3     O3        0.120385155655152    0.832126953218204    0.373730746646000  0.0000
  O2     O2        0.386110863538851    0.131366417889643    0.347258664622802  0.0000
  O3     O3        0.008739998803701    0.983827576541407    0.520316532814459  0.0000
  O2     O2        0.493505907839925    0.014724948408667    0.500327591134210  0.0000
  O3     O3        0.978056315359266    0.972691943967079    0.260359642470384  0.0000
  O2     O2        0.518370193049777    0.002926782724714    0.255037631879485  0.0000
  O2     O2        0.993179828728486    0.963564509201181    0.765758674605220  0.0000
  O2     O2        0.487309905534747    0.003547726017821    0.748628726055976  0.0000
  O2     O2        0.627224785146015    0.141626347256577    0.117471525597803  0.0000
  O2     O2        0.879901040499828    0.845322378815899    0.093186684949594  0.0000
  O2     O2        0.374979763673357    0.129939115754260    0.884996079201741  0.0000
  O3     O3        0.130639809517124    0.892463659512880    0.875354117957057  0.0000
  O2     O2        0.412674676397434    0.790867428769685    0.897598510030453  0.0000
  O3     O3        0.079708065812478    0.211413072814575    0.875629827726437  0.0000
  O2     O2        0.599708242327788    0.798047172599379    0.106415431350275  0.0000
  O2     O2        0.909343450793470    0.186801909725850    0.098092295553501  0.0000
  O2     O2        0.502258703529558    0.034301839098733    0.002516626344172  0.0000
  O2     O2        0.015747754076885    0.958033373097820    0.016993608764268  0.0000
  O2     O2        0.143447609144190    0.515537352399854    0.274487011758828  0.0000
  O2     O2        0.368639914705938    0.467203276796746    0.301692586766359  0.0000
  O2     O2        0.860822818144242    0.493286260613080    0.681023678985447  0.0000
  O3     O3        0.628840718894964    0.447017887804084    0.688206703397081  0.0000
  O2     O2        0.245192917371468    0.260912870951574    0.318552667689028  0.0000
  O2     O2        0.263826740123892    0.718877238113365    0.326301780777082  0.0000
  O2     O2        0.753030670351102    0.248612362072085    0.679382639147269  0.0000
  O3     O3        0.742849584230581    0.711216611638338    0.659633855952215  0.0000
  O3     O3        0.141006245295744    0.241443031620990    0.126162639114894  0.0000
  O2     O2        0.357520263240821    0.718005586288191    0.126869675696809  0.0000
  O2     O2        0.860004929026442    0.252339245190133    0.864268964120797  0.0000
  O3     O3        0.637902248196251    0.727198597617150    0.868753762807589  0.0000
  O2     O2        0.838302749352634    0.744373957646420    0.856095822002169  0.0000
  O2     O2        0.656639952321100    0.218057260111238    0.873657239231627  0.0000
  O3     O3        0.166331220418636    0.800623602965802    0.138390988444195  0.0000
  O2     O2        0.334521412919658    0.230744695406192    0.118845501517539  0.0000
  O2     O2        0.635526491963828    0.472485508660293    0.042384087804288  0.0000
  O2     O2        0.870006717152946    0.509410236839523    0.036672216163458  0.0000
  O2     O2        0.371511459946067    0.468350658750772    0.946550121506879  0.0000
  O1     O1        0.123515659503044    0.539072495396086    0.958512226359677  0.0000
  O2     O2        0.761217726415038    0.269611361179117    0.057951392765498  0.0000
  O2     O2        0.744689000680487    0.711830961325038    0.052108570356965  0.0000
  O3     O3        0.242076107893765    0.287903666245353    0.919587812198778  0.0000
  O3     O3        0.264311463195596    0.711828724036797    0.927237111710150  0.0000
