data_c00731.vasp
_audit_creation_method             Generated by GULP
_audit_author_name                 Salvador R. G. Balestra
_symmetry_space_group_name_H-M     'P 1             '
_symmetry_Int_Tables_number        1

loop_
_symmetry_equiv_pos_site_id
_symmetry_equiv_pos_as_xyz
_cell_length_a                       17.1985
_cell_length_b                        7.6202
_cell_length_c                       10.2663
_cell_angle_alpha                   90.8212
_cell_angle_beta                    90.7723
_cell_angle_gamma                   90.2213

loop_
_atom_site_label
_atom_site_type_symbol
_atom_site_fract_x
_atom_site_fract_y
_atom_site_fract_z
_atom_site_charge
  Ge     Ge        0.052090000000021    0.000000000000000    0.372269999999958  0.0000
  Ge     Ge        0.655084136012022    0.670310522685326    0.711857868664139  0.0000
  Ge     Ge        0.332275346159531    0.282112297916687    0.974536070803361  0.0000
  Ge     Ge        0.847807755222684    0.324174210814501    0.044561959554525  0.0000
  Si     Si        0.452401536973814    0.996144944789754    0.375997396414971  0.0000
  Si     Si        0.951362089157506    0.992428465675859    0.634845506563749  0.0000
  Si     Si        0.550631802865962    0.974035698348457    0.634157286156666  0.0000
  Si     Si        0.552818047995566    0.004002358728039    0.122532518971917  0.0000
  Si     Si        0.943840726262922    0.006091129399664    0.117415125999193  0.0000
  Si     Si        0.441406246523607    0.993419009806978    0.880734261206271  0.0000
  Si     Si        0.055257541916627    0.002982796450861    0.882440201371941  0.0000
  Si     Si        0.158373174217955    0.311009153166330    0.289474343759769  0.0000
  Si     Si        0.350615895216565    0.686499087954502    0.287094409939625  0.0000
  Si     Si        0.847084620229182    0.295133105169009    0.734952146041393  0.0000
  Si     Si        0.835906578512517    0.698629733695008    0.722992228249193  0.0000
  Si     Si        0.668230193064195    0.262336554966037    0.730930901072157  0.0000
  Si     Si        0.171495170893947    0.715611193427437    0.295179792190139  0.0000
  Si     Si        0.337118608622831    0.280517567668056    0.284160561225234  0.0000
  Si     Si        0.665634220089466    0.292181784205608    0.036312644913382  0.0000
  Si     Si        0.827327002806503    0.725500453191537    0.029611028176715  0.0000
  Si     Si        0.164988721179286    0.717453643133361    0.993317875577576  0.0000
  Si     Si        0.345970490246349    0.686338617075482    0.984858449520091  0.0000
  Si     Si        0.150195873860219    0.317329256306050    0.985401615100232  0.0000
  Si     Si        0.648957767079182    0.690414848749124    0.021182421407359  0.0000
  O3     O3        0.098624631263370    0.201299292273709    0.372356698593537  0.0000
  O2     O2        0.409694596418743    0.806233469836467    0.372601375874307  0.0000
  O2     O2        0.904265767855834    0.173151761582937    0.651858863558926  0.0000
  O3     O3        0.589640694247723    0.785671496566342    0.618134067289101  0.0000
  O2     O2        0.894748651924735    0.825556800793325    0.650146631727386  0.0000
  O2     O2        0.621491927430837    0.111622120301612    0.653260385727202  0.0000
  O3     O3        0.123588530794350    0.841980992030940    0.387243713723428  0.0000
  O2     O2        0.388870658358768    0.150582999534229    0.370441015308274  0.0000
  O3     O3        0.984898578785250    0.988620729507445    0.492177253977570  0.0000
  O2     O2        0.498867990589603    0.021379315061331    0.510052927295850  0.0000
  O3     O3        0.000591195082272    0.953063168755592    0.231553150052354  0.0000
  O2     O2        0.513898685670540    0.011264231067963    0.261901476351055  0.0000
  O2     O2        0.024154277463429    0.983334602994586    0.735286323089380  0.0000
  O2     O2        0.495571013989351    0.982114657518295    0.758015819966755  0.0000
  O2     O2        0.616955383716264    0.157792460352673    0.121705850900042  0.0000
  O2     O2        0.866307496177260    0.885194819067185    0.109968771008119  0.0000
  O3     O3        0.377703407745112    0.143840295409796    0.867298785496958  0.0000
  O2     O2        0.122101227760959    0.858251934802904    0.903842737447379  0.0000
  O2     O2        0.397693815813415    0.808040804550298    0.894905086134904  0.0000
  O2     O2        0.088523131769997    0.199960257828963    0.903555494426089  0.0000
  O2     O2        0.590987219995674    0.812724321863269    0.103207428796794  0.0000
  O3     O3        0.913746859291271    0.204404049042066    0.134537313232814  0.0000
  O2     O2        0.489947378767266    0.045087684901303    0.010799643111048  0.0000
  O2     O2        0.985626366725036    0.970301447325574    0.980178672491737  0.0000
  O2     O2        0.142698902091424    0.516405011956633    0.313753979585691  0.0000
  O2     O2        0.367689446868689    0.480414438193374    0.305989529900133  0.0000
  O2     O2        0.866830563805172    0.499029438619062    0.708927954862833  0.0000
  O3     O3        0.633801225710211    0.450085727329448    0.696142398964507  0.0000
  O2     O2        0.247436608518572    0.266064437428014    0.328111320450113  0.0000
  O2     O2        0.262958625691338    0.729263797532034    0.329868222714549  0.0000
  O2     O2        0.758367331039433    0.255133865028180    0.689474486688327  0.0000
  O3     O3        0.749516112421414    0.709567382172073    0.664186880751948  0.0000
  O2     O2        0.144960807084714    0.262538218126103    0.136703625983985  0.0000
  O2     O2        0.361902797921287    0.735877312738380    0.136450477003939  0.0000
  O3     O3        0.858582559059507    0.253652589047847    0.885514358887861  0.0000
  O3     O3        0.640726613414778    0.738263802548019    0.871012703687117  0.0000
  O2     O2        0.830642182452401    0.753083894858834    0.874559225877236  0.0000
  O2     O2        0.664659245409668    0.229455905939856    0.885558843595496  0.0000
  O2     O2        0.157588257741275    0.772997958445226    0.144892148622942  0.0000
  O3     O3        0.342961952653811    0.221786867778086    0.134737374028902  0.0000
  O2     O2        0.627550286304245    0.486494840000893    0.044851529867241  0.0000
  O3     O3        0.868893440634535    0.544270450377804    0.064440173547662  0.0000
  O3     O3        0.369884913406530    0.489608024179489    0.955255309625795  0.0000
  O2     O2        0.128651280262824    0.523067014695315    0.969718487003941  0.0000
  O3     O3        0.752696897937296    0.294820959052755    0.090788486281651  0.0000
  O2     O2        0.737414292101108    0.721246668866235    0.070668448571831  0.0000
  O3     O3        0.235069946259002    0.281742144027932    0.932707552747891  0.0000
  O2     O2        0.254879715231114    0.714971566067894    0.952853195853761  0.0000
