data_c00702.vasp
_audit_creation_method             Generated by GULP
_audit_author_name                 Salvador R. G. Balestra
_symmetry_space_group_name_H-M     'P 1             '
_symmetry_Int_Tables_number        1

loop_
_symmetry_equiv_pos_site_id
_symmetry_equiv_pos_as_xyz
_cell_length_a                       17.1914
_cell_length_b                        7.6186
_cell_length_c                       10.2900
_cell_angle_alpha                   89.3905
_cell_angle_beta                    90.1367
_cell_angle_gamma                   90.2996

loop_
_atom_site_label
_atom_site_type_symbol
_atom_site_fract_x
_atom_site_fract_y
_atom_site_fract_z
_atom_site_charge
  Ge     Ge        0.052090000000021    0.000000000000000    0.372269999999958  0.0000
  Ge     Ge        0.844266979285510    0.319920823538094    0.698171458440056  0.0000
  Ge     Ge        0.166163173911399    0.710257020746726    0.966881856547923  0.0000
  Ge     Ge        0.650634374601841    0.665393891812177    0.024964314189331  0.0000
  Si     Si        0.453103646593114    0.995753756846631    0.357078466303112  0.0000
  Si     Si        0.948480362618828    0.014151187008032    0.630196049403536  0.0000
  Si     Si        0.546514850457616    0.997894281346308    0.622660651405848  0.0000
  Si     Si        0.557006770231864    0.982629914381253    0.110134002141632  0.0000
  Si     Si        0.944223150280054    0.990798192517281    0.119328396806369  0.0000
  Si     Si        0.442895142403956    0.991819818659791    0.872566672310604  0.0000
  Si     Si        0.054311814092897    0.997964793820108    0.881462903429761  0.0000
  Si     Si        0.158841972337772    0.306856668576781    0.277815070177546  0.0000
  Si     Si        0.349210234670521    0.686219942998911    0.268005143555884  0.0000
  Si     Si        0.650765392374093    0.693950347263664    0.717271438858671  0.0000
  Si     Si        0.829943577402536    0.727374561130068    0.716265617126065  0.0000
  Si     Si        0.662617563570917    0.289364760939456    0.704914179194995  0.0000
  Si     Si        0.171414292975779    0.717116941215206    0.272469250201840  0.0000
  Si     Si        0.338108413838780    0.283672787598735    0.274900839662805  0.0000
  Si     Si        0.670207868629151    0.263178276288071    0.009834194785468  0.0000
  Si     Si        0.832934602173760    0.700067058629705    0.021484444574766  0.0000
  Si     Si        0.334197841929429    0.278956064624847    0.972121178350726  0.0000
  Si     Si        0.348012589026547    0.675087570776010    0.962245902241763  0.0000
  Si     Si        0.153126947862968    0.303544127897871    0.979261054371439  0.0000
  Si     Si        0.849287989196104    0.302382564603431    0.007214932422082  0.0000
  O3     O3        0.100478502111806    0.199979879205000    0.368183737685766  0.0000
  O2     O2        0.410615741203782    0.807681652108474    0.342700688212019  0.0000
  O3     O3        0.909382242788329    0.202588681439176    0.606680953974438  0.0000
  O2     O2        0.593408884381693    0.815999648196692    0.633006395540314  0.0000
  O2     O2        0.876376132182693    0.877089913816523    0.638191944100088  0.0000
  O2     O2        0.605612744605788    0.162538140564484    0.625285466852233  0.0000
  O3     O3        0.119497181085093    0.834207586227826    0.363528509552728  0.0000
  O2     O2        0.389306981945172    0.150122744057815    0.359927593967228  0.0000
  O3     O3        0.009724103784104    0.969430409200406    0.521867655803054  0.0000
  O2     O2        0.500995911130823    0.998390972822863    0.488486938222906  0.0000
  O3     O3        0.976922467159763    0.987466379900588    0.263302593197759  0.0000
  O2     O2        0.513107052122011    0.031798519629050    0.240908724004939  0.0000
  O2     O2        0.992517841311867    0.009307329099583    0.767920130107985  0.0000
  O2     O2        0.483090572265162    0.017139344329948    0.734945006552917  0.0000
  O2     O2        0.633605548114967    0.104092401989945    0.092660953202858  0.0000
  O2     O2        0.881090147193767    0.835270273158689    0.108170190034842  0.0000
  O2     O2        0.373933158368611    0.133527469829345    0.883650372865886  0.0000
  O3     O3        0.115565129795924    0.843840252839861    0.861874673469854  0.0000
  O2     O2        0.408599206031748    0.794577038007904    0.881871616098282  0.0000
  O2     O2        0.100049062622281    0.182727294961454    0.888723511835944  0.0000
  O3     O3        0.585429922901743    0.783301641543432    0.115760559373945  0.0000
  O2     O2        0.906127230991833    0.180956557214158    0.092638988760218  0.0000
  O2     O2        0.503070814757625    0.027088043081946    0.987362826724225  0.0000
  O2     O2        0.013102436432077    0.952807119477644    0.018550993302697  0.0000
  O2     O2        0.144133838519398    0.514364016101737    0.285007610796121  0.0000
  O2     O2        0.367529744043769    0.482433255137508    0.299126955671796  0.0000
  O3     O3        0.864944833366890    0.540264550966128    0.681106241911204  0.0000
  O2     O2        0.631632536100642    0.489169930888361    0.693064043964303  0.0000
  O2     O2        0.248122106303202    0.264783770560712    0.316737069108726  0.0000
  O2     O2        0.262135132526573    0.731857109531488    0.313665792705250  0.0000
  O3     O3        0.749371774185444    0.280500816979840    0.650413030552899  0.0000
  O2     O2        0.739510585366307    0.733706067342585    0.674169441266463  0.0000
  O2     O2        0.142764088385056    0.243810066372108    0.129946649694963  0.0000
  O2     O2        0.355605454559288    0.723287822283676    0.114224787625719  0.0000
  O3     O3        0.858224457198771    0.254998756229769    0.857773835979830  0.0000
  O3     O3        0.638824195086156    0.738492550139429    0.866933860720477  0.0000
  O2     O2        0.834282294934976    0.760127446691420    0.870735168794395  0.0000
  O2     O2        0.664611887232638    0.228639339153627    0.855603936232994  0.0000
  O3     O3        0.161699820527799    0.782798221378203    0.124814581828907  0.0000
  O2     O2        0.346600793681483    0.233287609484301    0.123873095839787  0.0000
  O3     O3        0.628752800515972    0.445282751653709    0.041258627749575  0.0000
  O2     O2        0.871188255149821    0.506171124178903    0.032556643665072  0.0000
  O2     O2        0.370244704959883    0.471214362523996    0.940688756227187  0.0000
  O3     O3        0.127645985295662    0.501438835724866    0.957909743948039  0.0000
  O2     O2        0.760281049045197    0.272759656805002    0.051244035213073  0.0000
  O3     O3        0.745694575274970    0.696533171933144    0.072938077396113  0.0000
  O2     O2        0.243010993641786    0.280883811527411    0.938707617028645  0.0000
  O3     O3        0.261405430906750    0.709992921949308    0.915071598799318  0.0000
