data_c00705.vasp
_audit_creation_method             Generated by GULP
_audit_author_name                 Salvador R. G. Balestra
_symmetry_space_group_name_H-M     'P 1             '
_symmetry_Int_Tables_number        1

loop_
_symmetry_equiv_pos_site_id
_symmetry_equiv_pos_as_xyz
_cell_length_a                       17.1992
_cell_length_b                        7.5852
_cell_length_c                       10.2485
_cell_angle_alpha                   89.2363
_cell_angle_beta                    89.8194
_cell_angle_gamma                   90.4049

loop_
_atom_site_label
_atom_site_type_symbol
_atom_site_fract_x
_atom_site_fract_y
_atom_site_fract_z
_atom_site_charge
  Ge     Ge        0.052090000000021    0.000000000000000    0.372269999999958  0.0000
  Ge     Ge        0.849508581604394    0.329374364884708    0.716031857902300  0.0000
  Ge     Ge        0.348525375059222    0.672081139973371    0.968076192918816  0.0000
  Ge     Ge        0.648517255349684    0.662374123759274    0.039881808601676  0.0000
  Si     Si        0.453293758022570    0.997990064816787    0.371168887987602  0.0000
  Si     Si        0.952038200251475    0.021239617151229    0.633041256476619  0.0000
  Si     Si        0.550461379042337    0.009330058185376    0.632701374029213  0.0000
  Si     Si        0.553891996576485    0.979251794825892    0.120358334121160  0.0000
  Si     Si        0.942657734891398    0.989485832137790    0.115590063835992  0.0000
  Si     Si        0.443301363705499    0.989856240841204    0.877414040750789  0.0000
  Si     Si        0.054954323229946    0.996420755866410    0.880094020343769  0.0000
  Si     Si        0.158279670764935    0.311394486264384    0.297193829189636  0.0000
  Si     Si        0.352294844863629    0.689433976501586    0.277323140790198  0.0000
  Si     Si        0.653530894102695    0.702371693299643    0.730603992677741  0.0000
  Si     Si        0.830798134100786    0.737798837281177    0.738639078176843  0.0000
  Si     Si        0.667453216574911    0.296091971244698    0.712615648139758  0.0000
  Si     Si        0.172846683399080    0.718263384838366    0.284623215989382  0.0000
  Si     Si        0.337090283521678    0.282831946222968    0.287301111650359  0.0000
  Si     Si        0.668521723232692    0.259679583605882    0.017736757408479  0.0000
  Si     Si        0.828658080917371    0.699306971691946    0.046421738136063  0.0000
  Si     Si        0.331247543460564    0.266315127492216    0.982652744842534  0.0000
  Si     Si        0.165400710872548    0.706294205403852    0.981168179511640  0.0000
  Si     Si        0.151642100136536    0.303553594595576    0.995283044424289  0.0000
  Si     Si        0.848100900521548    0.304747175444013    0.026259818696953  0.0000
  O3     O3        0.098819130439518    0.202070689192869    0.386000070310535  0.0000
  O2     O2        0.411146160597481    0.807742141536918    0.361577597113940  0.0000
  O3     O3        0.917737008911241    0.217096427359031    0.626730881417188  0.0000
  O2     O2        0.594713471198480    0.824063266240520    0.648539304659250  0.0000
  O2     O2        0.879254792233979    0.897876348194613    0.675534208996155  0.0000
  O2     O2        0.612122220415771    0.170618137683411    0.627714581039188  0.0000
  O3     O3        0.124790751589200    0.843742361943797    0.375718042069730  0.0000
  O2     O2        0.388763059394439    0.151398362983786    0.373872347767411  0.0000
  O3     O3        0.985024861322601    0.968064169216851    0.494034558026817  0.0000
  O2     O2        0.502916920570235    0.004472035149419    0.500711005448848  0.0000
  O3     O3        0.003617218998287    0.974016000324130    0.228491551824577  0.0000
  O2     O2        0.512488536472856    0.034719108255836    0.252734708612175  0.0000
  O2     O2        0.024035001510777    0.003928049441856    0.732988470654388  0.0000
  O2     O2        0.488782464345614    0.043369938417112    0.747195553668573  0.0000
  O2     O2        0.631821434688897    0.096206127306485    0.097429260685095  0.0000
  O2     O2        0.877433260468556    0.836693467825430    0.131373521746538  0.0000
  O2     O2        0.367822397151166    0.113156097348197    0.896438579373179  0.0000
  O2     O2        0.116233185876599    0.838048673263470    0.890942772265013  0.0000
  O3     O3        0.411872725887529    0.791436274769457    0.870683934269077  0.0000
  O2     O2        0.094214256520168    0.184605502618449    0.911044129699780  0.0000
  O3     O3        0.580404190275740    0.777672063326721    0.127551048124197  0.0000
  O2     O2        0.901503349787689    0.180476367793728    0.116891244235923  0.0000
  O2     O2        0.497844829240113    0.021733586435343    0.000532073836452  0.0000
  O2     O2        0.983815887682913    0.957273611868877    0.976844266359874  0.0000
  O2     O2        0.143743094448672    0.518505962278524    0.311706705770482  0.0000
  O2     O2        0.367976584303960    0.482476354504060    0.304677162984563  0.0000
  O3     O3        0.867727370792407    0.553110295806705    0.700077907885538  0.0000
  O2     O2        0.636495704423333    0.496635983134508    0.702510157868602  0.0000
  O2     O2        0.247550011438077    0.267249937870998    0.333661546856725  0.0000
  O2     O2        0.264074498338826    0.734808820459157    0.317267421193635  0.0000
  O3     O3        0.755621823213551    0.289060227037975    0.663727055563804  0.0000
  O2     O2        0.742040779811846    0.748330363009142    0.687150113038703  0.0000
  O2     O2        0.141693844390868    0.252514302665066    0.147789385019714  0.0000
  O3     O3        0.366585146833806    0.734630311300160    0.126588254692105  0.0000
  O3     O3        0.862769069258379    0.262934920884618    0.876097907587197  0.0000
  O3     O3        0.640098133458136    0.740388012676977    0.881605090269014  0.0000
  O2     O2        0.826100938478968    0.756170365728269    0.894548499532501  0.0000
  O2     O2        0.665460534567027    0.228162855257428    0.862534315895912  0.0000
  O2     O2        0.161571394232237    0.767900902418488    0.131565050627422  0.0000
  O2     O2        0.342958234118677    0.227776221286476    0.136525459029033  0.0000
  O3     O3        0.625747182224323    0.440754775798671    0.049940787358977  0.0000
  O2     O2        0.868991815224941    0.507370260045950    0.058447316472350  0.0000
  O3     O3        0.369403270892587    0.452948149523114    0.946365351499692  0.0000
  O2     O2        0.130561177892362    0.508019011730314    0.970223736356719  0.0000
  O2     O2        0.757849298760760    0.272874334100621    0.061445387087496  0.0000
  O3     O3        0.741369773041764    0.692300328389305    0.098809914727155  0.0000
  O2     O2        0.239812407265262    0.271070893975982    0.950282516423124  0.0000
  O3     O3        0.252854412233612    0.710137115899033    0.930180598829160  0.0000
