data_c00742.vasp
_audit_creation_method             Generated by GULP
_audit_author_name                 Salvador R. G. Balestra
_symmetry_space_group_name_H-M     'P 1             '
_symmetry_Int_Tables_number        1

loop_
_symmetry_equiv_pos_site_id
_symmetry_equiv_pos_as_xyz
_cell_length_a                       17.1043
_cell_length_b                        7.6533
_cell_length_c                       10.2751
_cell_angle_alpha                   89.9204
_cell_angle_beta                    90.6594
_cell_angle_gamma                   90.2141

loop_
_atom_site_label
_atom_site_type_symbol
_atom_site_fract_x
_atom_site_fract_y
_atom_site_fract_z
_atom_site_charge
  Ge     Ge        0.052090000000021    0.000000000000000    0.372269999999958  0.0000
  Ge     Ge        0.665733576894462    0.275164268751887    0.026718474870722  0.0000
  Ge     Ge        0.827055084998467    0.721397083587752    0.030327550482837  0.0000
  Ge     Ge        0.332238282479320    0.288940543880274    0.970988141406870  0.0000
  Si     Si        0.451097969746864    0.987043873885567    0.374094313874863  0.0000
  Si     Si        0.947849883454698    0.002154037422033    0.631301355142978  0.0000
  Si     Si        0.552221788842353    0.981362647201633    0.632912741738009  0.0000
  Si     Si        0.551973982618733    0.988594851845931    0.120083699202915  0.0000
  Si     Si        0.942093386895870    0.005949798589090    0.115484778741753  0.0000
  Si     Si        0.442339854339932    0.003611475884151    0.879274606892523  0.0000
  Si     Si        0.051311935314150    0.995626284178106    0.880571729974124  0.0000
  Si     Si        0.159668148931534    0.305224875266777    0.289070520144580  0.0000
  Si     Si        0.347528677289651    0.684533683754243    0.283414102826017  0.0000
  Si     Si        0.844606279553632    0.307786914252245    0.728338965794346  0.0000
  Si     Si        0.655573843398108    0.674707992410412    0.714565307462868  0.0000
  Si     Si        0.833379501386230    0.709891871045846    0.721088699135913  0.0000
  Si     Si        0.665833591450886    0.273122450224856    0.717539170449804  0.0000
  Si     Si        0.166766463630289    0.707193932488120    0.290663863742146  0.0000
  Si     Si        0.339743938882932    0.281018936097834    0.280386611710993  0.0000
  Si     Si        0.161750968726533    0.709355310758411    0.988998668138483  0.0000
  Si     Si        0.344435499657019    0.692780713295149    0.981522039765579  0.0000
  Si     Si        0.148658838949790    0.308466479056222    0.985249001077678  0.0000
  Si     Si        0.644838000876335    0.673544299814455    0.020122496806221  0.0000
  Si     Si        0.848984168950988    0.323620721104537    0.033419606352024  0.0000
  O3     O3        0.104502619254967    0.192543368390972    0.379214634625301  0.0000
  O2     O2        0.403291639837605    0.804973508368794    0.371981865879136  0.0000
  O2     O2        0.904552628387539    0.186832589075511    0.651555615551271  0.0000
  O2     O2        0.596665781878142    0.795542920537086    0.631685776488553  0.0000
  O2     O2        0.887438756284307    0.840584291328264    0.639285989941948  0.0000
  O2     O2        0.614900077992386    0.139368896271699    0.630523527145775  0.0000
  O3     O3        0.118045777199810    0.829407474340635    0.383578830181939  0.0000
  O2     O2        0.392629297798655    0.151404847274249    0.366665011908454  0.0000
  O3     O3        0.982380556592216    0.997643507092059    0.489024888296733  0.0000
  O2     O2        0.497644256255885    0.998091868470693    0.508037572222005  0.0000
  O3     O3        0.004758765099855    0.977393016845061    0.225780731643867  0.0000
  O2     O2        0.512744986415784    0.991925162080616    0.259159839289368  0.0000
  O2     O2        0.019933597259134    0.984398783344035    0.733169833022652  0.0000
  O2     O2        0.498075032514766    0.992873132202076    0.757838730586274  0.0000
  O3     O3        0.624645261856376    0.119391109747017    0.123966764705346  0.0000
  O3     O3        0.869195559174349    0.875913295208386    0.128997560199851  0.0000
  O3     O3        0.379682675134314    0.155805247507496    0.863837064857552  0.0000
  O2     O2        0.117114504333619    0.847204510013354    0.897892782130855  0.0000
  O2     O2        0.396229839049304    0.821067211520597    0.894931388815349  0.0000
  O2     O2        0.086410984381387    0.189088477899430    0.907180698880076  0.0000
  O2     O2        0.580347164784136    0.793064826300877    0.088061602259185  0.0000
  O2     O2        0.909737026343436    0.204340923700995    0.114331711974212  0.0000
  O2     O2        0.492451660292481    0.055500219150756    0.008031278462802  0.0000
  O2     O2        0.980306204779022    0.955698232630974    0.976725004958087  0.0000
  O2     O2        0.139839155944137    0.507719272570801    0.311333102077098  0.0000
  O2     O2        0.368563432949199    0.480834808932306    0.302340386921689  0.0000
  O2     O2        0.865452805318184    0.511859708344532    0.705841281897234  0.0000
  O2     O2        0.634482483150403    0.470425451752559    0.694239452452340  0.0000
  O2     O2        0.249900120837746    0.265160262959318    0.324866124958667  0.0000
  O2     O2        0.258749908612687    0.722087185232209    0.323949761494767  0.0000
  O2     O2        0.756897347327711    0.265983160998128    0.677140827505295  0.0000
  O2     O2        0.743807647556721    0.713894224633805    0.667925331447376  0.0000
  O2     O2        0.144907513501741    0.255848710607291    0.137486765114505  0.0000
  O2     O2        0.359998168786899    0.737764136167437    0.133183769103551  0.0000
  O2     O2        0.850046836870899    0.266631160330457    0.881464831028334  0.0000
  O2     O2        0.648854272496973    0.720456447315146    0.866615492214555  0.0000
  O3     O3        0.833730235785021    0.774600932967939    0.868238159862183  0.0000
  O3     O3        0.658801244828545    0.213417285956844    0.865911491041977  0.0000
  O2     O2        0.152357452406815    0.763310533053557    0.139876784225772  0.0000
  O3     O3        0.345926372397607    0.226908171811622    0.130939626859641  0.0000
  O3     O3        0.619987949598988    0.474986642874098    0.041641674208003  0.0000
  O3     O3        0.873137312393698    0.522436991464374    0.053001676962462  0.0000
  O3     O3        0.368099774995424    0.497494327528274    0.949969135624047  0.0000
  O2     O2        0.127797061750615    0.513852854068677    0.966254179185718  0.0000
  O3     O3        0.760885534193717    0.295831042262097    0.079991600863627  0.0000
  O3     O3        0.730929663661062    0.707080355294743    0.077586473223989  0.0000
  O3     O3        0.234279100921670    0.275927626632111    0.931948859520398  0.0000
  O2     O2        0.252398760925853    0.715926736111907    0.949792378215585  0.0000
