data_c00793.vasp
_audit_creation_method             Generated by GULP
_audit_author_name                 Salvador R. G. Balestra
_symmetry_space_group_name_H-M     'P 1             '
_symmetry_Int_Tables_number        1

loop_
_symmetry_equiv_pos_site_id
_symmetry_equiv_pos_as_xyz
_cell_length_a                       16.8868
_cell_length_b                        7.5542
_cell_length_c                       10.4988
_cell_angle_alpha                   91.0150
_cell_angle_beta                    90.2710
_cell_angle_gamma                   90.4431

loop_
_atom_site_label
_atom_site_type_symbol
_atom_site_fract_x
_atom_site_fract_y
_atom_site_fract_z
_atom_site_charge
  Ge     Ge        0.556730000000016    0.000000000000000    0.122129999999970  0.0000
  Ge     Ge        0.945407398814827    0.027652664095120    0.119729595434438  0.0000
  Ge     Ge        0.147522048629483    0.326819269178780    0.285532599085359  0.0000
  Ge     Ge        0.858698853257397    0.358617125866361    0.020208038496721  0.0000
  Si     Si        0.044848847119736    0.016798561543163    0.375672623014254  0.0000
  Si     Si        0.453263346444357    0.005915306533982    0.375042823840662  0.0000
  Si     Si        0.949027552558223    0.006971941693570    0.631290698540801  0.0000
  Si     Si        0.545138754694614    0.987105422831574    0.637378512044738  0.0000
  Si     Si        0.440846594531961    0.998299611259905    0.885432752581525  0.0000
  Si     Si        0.054530199227705    0.995733952486560    0.879467503606787  0.0000
  Si     Si        0.348758948601989    0.696769488316562    0.276637437209593  0.0000
  Si     Si        0.849235875306696    0.319887518803835    0.718827563904774  0.0000
  Si     Si        0.646503243351666    0.678699554892981    0.718957381521049  0.0000
  Si     Si        0.827794935216879    0.726851152622550    0.715429955371227  0.0000
  Si     Si        0.667992657023093    0.272779327542194    0.723623977224810  0.0000
  Si     Si        0.166212906122623    0.741846526649326    0.275219191439174  0.0000
  Si     Si        0.333981573261438    0.288289588598189    0.282610809192961  0.0000
  Si     Si        0.674258307273132    0.281383647085830    0.020665097619712  0.0000
  Si     Si        0.825681741547918    0.756693284693198    0.012762370980157  0.0000
  Si     Si        0.329418945210618    0.279060840847999    0.984744482054810  0.0000
  Si     Si        0.166554432383174    0.719216485158383    0.978201332406271  0.0000
  Si     Si        0.349744549600891    0.679046977534101    0.981050837760276  0.0000
  Si     Si        0.145115981232974    0.316956836697738    0.984797766178884  0.0000
  Si     Si        0.644275087595002    0.674945246913178    0.014015374400323  0.0000
  O3     O3        0.078281886648426    0.215481267184841    0.373620269267260  0.0000
  O2     O2        0.409703348194489    0.815889171041491    0.358111770142079  0.0000
  O2     O2        0.909587049775681    0.201580807582971    0.634169833090591  0.0000
  O2     O2        0.584238474798362    0.791759398194492    0.637189299282979  0.0000
  O2     O2        0.879108756123163    0.859821114732215    0.630672870037552  0.0000
  O2     O2        0.615524026351484    0.132441204668351    0.643551688281342  0.0000
  O2     O2        0.121593395920818    0.891284062566271    0.356721644117616  0.0000
  O2     O2        0.388938983472146    0.162182725834622    0.365253763970351  0.0000
  O2     O2        0.000789526306589    0.979704885144407    0.506288861847215  0.0000
  O2     O2        0.494148927989186    0.013139673648082    0.511804015496730  0.0000
  O3     O3        0.982485921488173    0.973348071393890    0.264720041866429  0.0000
  O3     O3        0.520346646146306    0.032259884887835    0.271641248489920  0.0000
  O2     O2        0.008884942011457    0.978051276966431    0.747358371354400  0.0000
  O2     O2        0.485502653443670    0.015811037191432    0.753633716833628  0.0000
  O3     O3        0.638521826597070    0.135573490900921    0.110106296643834  0.0000
  O3     O3        0.854527001539211    0.921354929973176    0.095392976199302  0.0000
  O2     O2        0.366880381388406    0.133722545370260    0.890925099033268  0.0000
  O2     O2        0.126427785557606    0.854540659592458    0.882180743607234  0.0000
  O2     O2        0.408979543738205    0.796193925140068    0.897539989273623  0.0000
  O2     O2        0.088173339455834    0.196948220765251    0.894816976809684  0.0000
  O3     O3        0.584450240172684    0.781988346093824    0.100952310980372  0.0000
  O1     O1        0.926954502631585    0.248639535104605    0.108780974904290  0.0000
  O3     O3        0.493677332123399    0.062044384800695    0.003288143151320  0.0000
  O3     O3        0.000681201804078    0.942922942046976    0.996333641515132  0.0000
  O3     O3        0.132928298706350    0.549958417654388    0.307737814640860  0.0000
  O2     O2        0.362155884945293    0.491321804825311    0.306057341842991  0.0000
  O2     O2        0.861990457376271    0.529123455776107    0.695215934840773  0.0000
  O2     O2        0.633235862112176    0.468456343689025    0.698654123563636  0.0000
  O3     O3        0.243349811651736    0.270783923040349    0.323404497207803  0.0000
  O2     O2        0.259230271781753    0.750525721336578    0.310677563507826  0.0000
  O2     O2        0.759290375990549    0.266085217466031    0.679095018511545  0.0000
  O2     O2        0.735406572708561    0.729985817168460    0.675050004441629  0.0000
  O3     O3        0.125681830364676    0.266972394368228    0.128985481186657  0.0000
  O2     O2        0.365850286557347    0.733761915067761    0.128314758092351  0.0000
  O3     O3        0.868305274196852    0.281497248966102    0.864375289157745  0.0000
  O2     O2        0.631444025884845    0.730243892443526    0.866652649874613  0.0000
  O2     O2        0.833776499346363    0.790989677600862    0.861634836471733  0.0000
  O2     O2        0.667193142603496    0.221774339117192    0.871795147177908  0.0000
  O2     O2        0.155349230326333    0.780791715058339    0.125128409260769  0.0000
  O2     O2        0.341967227278287    0.233901893295070    0.133388244010860  0.0000
  O2     O2        0.627407630492288    0.467635927368965    0.033901105067947  0.0000
  O3     O3        0.876267980470076    0.581486007801175    0.040555036874694  0.0000
  O2     O2        0.367519077316307    0.471982975905866    0.957191311907722  0.0000
  O2     O2        0.127911899663573    0.523534977183729    0.960178706922043  0.0000
  O3     O3        0.763577104554997    0.309468632708530    0.065019624308145  0.0000
  O2     O2        0.735067094421310    0.717659328340813    0.049985467064998  0.0000
  O2     O2        0.236424941726285    0.279127962502643    0.955109740195298  0.0000
  O2     O2        0.259121504576324    0.716400809227446    0.944513770120425  0.0000
