data_c00795.vasp
_audit_creation_method             Generated by GULP
_audit_author_name                 Salvador R. G. Balestra
_symmetry_space_group_name_H-M     'P 1             '
_symmetry_Int_Tables_number        1

loop_
_symmetry_equiv_pos_site_id
_symmetry_equiv_pos_as_xyz
_cell_length_a                       16.9299
_cell_length_b                        7.5728
_cell_length_c                       10.4636
_cell_angle_alpha                   89.7616
_cell_angle_beta                    90.5414
_cell_angle_gamma                   90.7455

loop_
_atom_site_label
_atom_site_type_symbol
_atom_site_fract_x
_atom_site_fract_y
_atom_site_fract_z
_atom_site_charge
  Ge     Ge        0.556730000000016    0.000000000000000    0.122129999999970  0.0000
  Ge     Ge        0.939587143427340    0.032624999784086    0.136304204511887  0.0000
  Ge     Ge        0.853982302076213    0.348976369233563    0.719723249944671  0.0000
  Ge     Ge        0.828917777394195    0.770487668140587    0.728108577269746  0.0000
  Si     Si        0.051463518865867    0.021786838405921    0.383275080578926  0.0000
  Si     Si        0.452739336975981    0.015476005394652    0.374109135807565  0.0000
  Si     Si        0.955261953302233    0.042954756650216    0.635667740552572  0.0000
  Si     Si        0.543970320436490    0.008158519269792    0.638777037390336  0.0000
  Si     Si        0.440130741412428    0.022967566261377    0.884924624307633  0.0000
  Si     Si        0.050285676270012    0.014710055325107    0.895211327480345  0.0000
  Si     Si        0.153526623691485    0.329312603845192    0.283797107210454  0.0000
  Si     Si        0.347967292523421    0.707991308845310    0.279185744121890  0.0000
  Si     Si        0.644501333356006    0.697351048235489    0.725645316388042  0.0000
  Si     Si        0.668264113279179    0.292697698556699    0.718544409179501  0.0000
  Si     Si        0.166006928180678    0.735970493907422    0.281370125061535  0.0000
  Si     Si        0.335628723471131    0.300995122282373    0.278557662256681  0.0000
  Si     Si        0.674144643448665    0.281541516316655    0.017874947078264  0.0000
  Si     Si        0.823474115213398    0.754102212380354    0.028174388645218  0.0000
  Si     Si        0.329391923808207    0.302622749992711    0.981193675871245  0.0000
  Si     Si        0.164023607229103    0.734280170972236    0.983496683123239  0.0000
  Si     Si        0.346804932877775    0.703522373273954    0.982014299717368  0.0000
  Si     Si        0.146383515282463    0.333579145719213    0.986939819048864  0.0000
  Si     Si        0.642960035775466    0.674528683584430    0.023706616696982  0.0000
  Si     Si        0.854960413299356    0.353646977115183    0.019752999283653  0.0000
  O2     O2        0.095552315636546    0.211360538382642    0.369500553146424  0.0000
  O2     O2        0.408989565292034    0.825399953120650    0.360669576630787  0.0000
  O3     O3        0.924055248927147    0.240854683234382    0.630978686988301  0.0000
  O2     O2        0.580011703648882    0.812156302003934    0.648227102855015  0.0000
  O3     O3        0.876931856329172    0.921151951721114    0.632456926376463  0.0000
  O2     O2        0.614405886460896    0.153763845893058    0.640002587984613  0.0000
  O2     O2        0.114610374796266    0.866437989365727    0.365177951169883  0.0000
  O2     O2        0.388098676635311    0.169765200800673    0.362223941372494  0.0000
  O2     O2        0.016620293240554    0.005121858556318    0.524274478715629  0.0000
  O2     O2        0.493993363265842    0.027069917447348    0.510502222291697  0.0000
  O3     O3        0.979331967908805    0.006102270292407    0.285795842152403  0.0000
  O3     O3        0.519760121442109    0.039205268502453    0.269961535984684  0.0000
  O2     O2        0.999435657659047    0.994108782744647    0.768044723361817  0.0000
  O2     O2        0.484019769434954    0.043856457770116    0.752549986676573  0.0000
  O3     O3        0.641248329101024    0.128052285526642    0.105336197004700  0.0000
  O3     O3        0.860033332007054    0.886781602022430    0.130000626435403  0.0000
  O2     O2        0.369147800206147    0.163823407429986    0.888247601926634  0.0000
  O2     O2        0.121336516572199    0.873624561576694    0.892404896490834  0.0000
  O2     O2        0.404854500983550    0.823701857155745    0.897583327078066  0.0000
  O2     O2        0.086216180156695    0.214156790419378    0.904383357101296  0.0000
  O3     O3        0.581321314076983    0.780099023742715    0.106713722509126  0.0000
  O3     O3        0.912886486890353    0.250329791831138    0.114427239757685  0.0000
  O3     O3        0.495712437332598    0.072932035770841    0.002445098750124  0.0000
  O3     O3        0.001066091534140    0.962466527840918    0.018159394032182  0.0000
  O2     O2        0.139344177901507    0.535042334838150    0.312246116641848  0.0000
  O2     O2        0.362786867123569    0.502044084032135    0.307255233846555  0.0000
  O1     O1        0.869605521787752    0.568795432112401    0.702057241557262  0.0000
  O2     O2        0.633293008208668    0.488881898542964    0.697365183528991  0.0000
  O2     O2        0.243731548442691    0.277947328231177    0.314502235152379  0.0000
  O2     O2        0.258684057110556    0.759470686074406    0.314675026663861  0.0000
  O3     O3        0.758126653801315    0.290853521598429    0.673344544030696  0.0000
  O3     O3        0.730594704384458    0.757877498689672    0.682634423104027  0.0000
  O2     O2        0.131966203317860    0.288075446136997    0.136053043732815  0.0000
  O2     O2        0.364599416036278    0.749739761671851    0.130271597877682  0.0000
  O3     O3        0.870167128558785    0.286290238828212    0.877180746456535  0.0000
  O2     O2        0.631643487340391    0.733573578005082    0.875951884004035  0.0000
  O3     O3        0.831686452140951    0.834063208437349    0.886427770919376  0.0000
  O2     O2        0.667242241678951    0.235947363964969    0.867525798706859  0.0000
  O2     O2        0.152249756389827    0.781432090969641    0.132440930507553  0.0000
  O2     O2        0.345997200314105    0.254570640850462    0.129496170467619  0.0000
  O2     O2        0.628021952155331    0.465314724892319    0.041594818840650  0.0000
  O2     O2        0.868127289401484    0.564849436166648    0.026959283408413  0.0000
  O2     O2        0.363802147048385    0.498972050326226    0.953500455002830  0.0000
  O2     O2        0.128584485955439    0.538151549021107    0.957766240289125  0.0000
  O2     O2        0.765228012497357    0.306672285417673    0.057524932888580  0.0000
  O2     O2        0.732312579046643    0.723099893222262    0.065330817125875  0.0000
  O2     O2        0.236263890501337    0.293287450695348    0.952021069802602  0.0000
  O2     O2        0.256094825313350    0.743321206194827    0.949395452653593  0.0000
