data_c00792.vasp
_audit_creation_method             Generated by GULP
_audit_author_name                 Salvador R. G. Balestra
_symmetry_space_group_name_H-M     'P 1             '
_symmetry_Int_Tables_number        1

loop_
_symmetry_equiv_pos_site_id
_symmetry_equiv_pos_as_xyz
_cell_length_a                       16.8766
_cell_length_b                        7.5776
_cell_length_c                       10.4679
_cell_angle_alpha                   90.3128
_cell_angle_beta                    90.6230
_cell_angle_gamma                   89.3024

loop_
_atom_site_label
_atom_site_type_symbol
_atom_site_fract_x
_atom_site_fract_y
_atom_site_fract_z
_atom_site_charge
  Ge     Ge        0.556730000000016    0.000000000000000    0.122129999999970  0.0000
  Ge     Ge        0.944447879825169    0.966342724778754    0.099724954517883  0.0000
  Ge     Ge        0.161101372625546    0.260491237210513    0.273349739044106  0.0000
  Ge     Ge        0.675914421624590    0.718263195731816    0.014174139732933  0.0000
  Si     Si        0.042222401172611    0.981515765413894    0.363269814933321  0.0000
  Si     Si        0.448968482174990    0.991882223704952    0.370156514556921  0.0000
  Si     Si        0.945889897664398    0.958540924300362    0.619208501979908  0.0000
  Si     Si        0.544166402509200    0.988499484103319    0.629903182888440  0.0000
  Si     Si        0.443611085359248    0.974536096470565    0.881904649534383  0.0000
  Si     Si        0.055092124206535    0.980857493027558    0.860960208386864  0.0000
  Si     Si        0.331139322062197    0.707780839833697    0.269652816190741  0.0000
  Si     Si        0.826513853234216    0.246800659235865    0.711954230336300  0.0000
  Si     Si        0.665669744976621    0.704918293913993    0.711690268263551  0.0000
  Si     Si        0.846365146501397    0.649275117240603    0.711975166294622  0.0000
  Si     Si        0.645179968674342    0.298245545195006    0.714890321163564  0.0000
  Si     Si        0.147588717685268    0.675936832447758    0.267844056824516  0.0000
  Si     Si        0.347534121666752    0.301247524384786    0.276526125184767  0.0000
  Si     Si        0.641428804637343    0.319775109614827    0.010178343228742  0.0000
  Si     Si        0.858236460540641    0.634929444065916    0.011866121770761  0.0000
  Si     Si        0.348703163790435    0.295783403357198    0.978417975436566  0.0000
  Si     Si        0.146871027424867    0.663321702237797    0.971504790726694  0.0000
  Si     Si        0.330387859213227    0.695657216620845    0.971821649261135  0.0000
  Si     Si        0.164538014284828    0.258253571469050    0.970788895573581  0.0000
  Si     Si        0.824020115070312    0.244906127044802    0.009369865294774  0.0000
  O3     O3        0.107259062151655    0.132994120094664    0.374619517498386  0.0000
  O2     O2        0.380321579416911    0.846464146898340    0.352920220570059  0.0000
  O2     O2        0.876788820367274    0.106217807423928    0.630397553378281  0.0000
  O2     O2        0.612762433143840    0.837866293006128    0.625367814063370  0.0000
  O2     O2        0.908463698323998    0.764832419988831    0.633718610196256  0.0000
  O2     O2        0.584030265006070    0.181934333685343    0.631770030874423  0.0000
  O2     O2        0.088495027261773    0.795005202253681    0.350615200572642  0.0000
  O2     O2        0.411144527010444    0.188194557965521    0.357796675624816  0.0000
  O2     O2        0.983442830221085    0.973055012865246    0.480891068958289  0.0000
  O2     O2        0.487888872664425    0.970532131948787    0.508086074603098  0.0000
  O3     O3        0.990495637881940    0.023693624449934    0.238319412776298  0.0000
  O3     O3        0.516535151584997    0.962806674888065    0.267761880851536  0.0000
  O2     O2        0.016007184589823    0.989265485479156    0.721462463392628  0.0000
  O2     O2        0.488560652093991    0.959779536147595    0.750167797832633  0.0000
  O3     O3        0.581157847453577    0.217540763169860    0.097992423301968  0.0000
  O3     O3        0.924672131443569    0.743574116801974    0.086774257238738  0.0000
  O2     O2        0.408521239947103    0.173309988370094    0.898790649560152  0.0000
  O2     O2        0.088798902247779    0.781815032389515    0.884183455407146  0.0000
  O2     O2        0.371985711201001    0.834086544549124    0.880602645086977  0.0000
  O2     O2        0.125563009253811    0.124014996273322    0.869749223928261  0.0000
  O1     O1        0.641747205367200    0.876426722360360    0.113878807921068  0.0000
  O3     O3        0.856737170482503    0.088957656667916    0.094520396989774  0.0000
  O3     O3        0.499193379719451    0.919042484837474    0.998502270843142  0.0000
  O3     O3        0.994203620128597    0.038444783511707    0.968112521421215  0.0000
  O3     O3        0.130928773120803    0.475763853976670    0.296766592996270  0.0000
  O2     O2        0.359906230318304    0.509202299539073    0.302654263951369  0.0000
  O2     O2        0.861374617016425    0.441314397660374    0.685899139745280  0.0000
  O2     O2        0.631112055426502    0.507279737889322    0.694887055983893  0.0000
  O3     O3        0.260203246778840    0.245063611401902    0.312803180171800  0.0000
  O2     O2        0.238229508745729    0.727527624143042    0.301431676718413  0.0000
  O2     O2        0.733993831467981    0.244587551932631    0.671317786933450  0.0000
  O2     O2        0.757399391824418    0.702633581759416    0.667333532155331  0.0000
  O3     O3        0.148568335424391    0.198934846886707    0.115128604655005  0.0000
  O2     O2        0.343725030917202    0.748128560017504    0.120239143616525  0.0000
  O2     O2        0.831841246170684    0.193190797168304    0.859926761175472  0.0000
  O3     O3        0.664843500407724    0.775707397455542    0.855210203569057  0.0000
  O2     O2        0.859112347880485    0.689235573607308    0.861882200820553  0.0000
  O2     O2        0.630285876967051    0.253296769846832    0.863126581730226  0.0000
  O2     O2        0.130052122632766    0.717789556180773    0.118224606018722  0.0000
  O2     O2        0.364138528639445    0.256367803574352    0.127835189083187  0.0000
  O3     O3        0.623726260406293    0.523915614311850    0.027878414676802  0.0000
  O2     O2        0.873286611906273    0.425925724274683    0.031167402593882  0.0000
  O2     O2        0.365977620550635    0.499553631519641    0.947008217737757  0.0000
  O2     O2        0.129416472395325    0.456562016547833    0.950451282563713  0.0000
  O2     O2        0.733256337069011    0.281329853304316    0.047079896883932  0.0000
  O3     O3        0.772700273286947    0.688560980996916    0.062412531897363  0.0000
  O2     O2        0.258094017416612    0.254068156258405    0.944324864618010  0.0000
  O2     O2        0.237503340236873    0.701145675644020    0.937716894084537  0.0000
