data_c00777.vasp
_audit_creation_method             Generated by GULP
_audit_author_name                 Salvador R. G. Balestra
_symmetry_space_group_name_H-M     'P 1             '
_symmetry_Int_Tables_number        1

loop_
_symmetry_equiv_pos_site_id
_symmetry_equiv_pos_as_xyz
_cell_length_a                       16.8633
_cell_length_b                        7.5552
_cell_length_c                       10.5129
_cell_angle_alpha                   90.1407
_cell_angle_beta                    90.2777
_cell_angle_gamma                   90.1126

loop_
_atom_site_label
_atom_site_type_symbol
_atom_site_fract_x
_atom_site_fract_y
_atom_site_fract_z
_atom_site_charge
  Ge     Ge        0.556730000000016    0.000000000000000    0.122129999999970  0.0000
  Ge     Ge        0.944211721188225    0.014239421947565    0.127566570932935  0.0000
  Ge     Ge        0.444368457379874    0.993893456901057    0.877589817011299  0.0000
  Ge     Ge        0.326315384888262    0.269443107139274    0.981773164919927  0.0000
  Si     Si        0.053264689625864    0.016853966023615    0.379967850651021  0.0000
  Si     Si        0.456641063005631    0.000613499533518    0.375916466414422  0.0000
  Si     Si        0.958600536723266    0.016474234389757    0.639081419336803  0.0000
  Si     Si        0.556867529764052    0.993512922624624    0.629690396398676  0.0000
  Si     Si        0.055424452531612    0.004538776398184    0.893329668188734  0.0000
  Si     Si        0.155020148772941    0.327844943516645    0.291808930352433  0.0000
  Si     Si        0.353947371060037    0.693579691906051    0.275407810640364  0.0000
  Si     Si        0.857621286444364    0.326309762898393    0.726822233661216  0.0000
  Si     Si        0.655798247401534    0.682832338145552    0.716161262319269  0.0000
  Si     Si        0.837882035950213    0.733012456363899    0.726978990079450  0.0000
  Si     Si        0.674964446310436    0.277160993468918    0.717375570721284  0.0000
  Si     Si        0.171361935086729    0.732725069884582    0.286119915562450  0.0000
  Si     Si        0.335863742740714    0.281843211018966    0.282171276103607  0.0000
  Si     Si        0.674842433003751    0.275960458363961    0.012953851133907  0.0000
  Si     Si        0.828134160438852    0.737829865838287    0.022104523146428  0.0000
  Si     Si        0.168730830276614    0.725656887338850    0.990218263714832  0.0000
  Si     Si        0.353934039419172    0.674202935484090    0.983224795366521  0.0000
  Si     Si        0.142606332040780    0.330546363056868    0.993194724114726  0.0000
  Si     Si        0.645558521933434    0.674009987930345    0.011003322999354  0.0000
  Si     Si        0.857732993365697    0.339836414670504    0.020883679621954  0.0000
  O2     O2        0.092927967179321    0.211613384918366    0.371649196305438  0.0000
  O2     O2        0.415127811596511    0.808103060904086    0.359187929837062  0.0000
  O2     O2        0.918386628598046    0.210507634759545    0.643721115826931  0.0000
  O2     O2        0.596667580348028    0.798571258379006    0.629136444401923  0.0000
  O2     O2        0.889670153018274    0.867872699017360    0.643852964809640  0.0000
  O2     O2        0.626690440148761    0.141617426792725    0.627611850527610  0.0000
  O2     O2        0.123006160160592    0.870872891922167    0.371152853084954  0.0000
  O2     O2        0.390922332596102    0.155685384175051    0.368102119020173  0.0000
  O2     O2        0.007935771794946    0.996877108602533    0.511540099935421  0.0000
  O2     O2        0.497318604050699    0.010599153499840    0.512823029649195  0.0000
  O3     O3        0.989319647497951    0.984171379061089    0.270580868881092  0.0000
  O3     O3        0.525825142788606    0.025927485167515    0.275444088372623  0.0000
  O2     O2        0.020327498752458    0.988718328168548    0.753243054359052  0.0000
  O3     O3        0.505402845688860    0.028082616469880    0.753279807885205  0.0000
  O3     O3        0.640251557326253    0.130255952541162    0.103754992647746  0.0000
  O3     O3        0.860703424542770    0.880841097209939    0.118536933690014  0.0000
  O1     O1        0.361796674453471    0.125344408108777    0.873710103486105  0.0000
  O2     O2        0.133132797136933    0.878315955640784    0.901284331634764  0.0000
  O3     O3        0.410613115980525    0.778333013269153    0.889463321306297  0.0000
  O2     O2        0.076515081186590    0.209930515876753    0.924232081328052  0.0000
  O3     O3        0.581869437943590    0.781326842545075    0.089738163775389  0.0000
  O3     O3        0.916270992460933    0.233069525811863    0.110796458734741  0.0000
  O1     O1        0.487744148382566    0.068746367042359    0.016004130526968  0.0000
  O3     O3        0.997705474128332    0.934492982922079    0.000945985075078  0.0000
  O2     O2        0.140117547701298    0.535398162692192    0.317693040886557  0.0000
  O2     O2        0.367805290525840    0.483923834781875    0.293143422159332  0.0000
  O2     O2        0.870482738659326    0.534779267641517    0.702427012283435  0.0000
  O2     O2        0.643271738362913    0.475035599540048    0.688566053546740  0.0000
  O2     O2        0.244820167440623    0.276911710109559    0.330759424400220  0.0000
  O2     O2        0.264903486393710    0.744958140930932    0.317123954248833  0.0000
  O2     O2        0.768449665393169    0.269525802159297    0.687252671957693  0.0000
  O2     O2        0.745839910212426    0.740058546998545    0.684838641289689  0.0000
  O2     O2        0.140122394437433    0.285302705400581    0.143475387900762  0.0000
  O2     O2        0.370133066407057    0.744177920819272    0.128236546998598  0.0000
  O2     O2        0.875140956211266    0.283959876805827    0.874532439281740  0.0000
  O2     O2        0.633354360673139    0.724672835043610    0.862184226274728  0.0000
  O2     O2        0.842997535692805    0.790113361976707    0.874527978489405  0.0000
  O2     O2        0.662357267591934    0.223344105822517    0.864395983664678  0.0000
  O2     O2        0.158719524279026    0.780467539401898    0.138022767588883  0.0000
  O3     O3        0.337387452840925    0.208767247896165    0.139881331764951  0.0000
  O2     O2        0.631839215295275    0.465362914772638    0.033421456363132  0.0000
  O2     O2        0.870432691705240    0.548161610061858    0.044305028244037  0.0000
  O3     O3        0.373862582713695    0.471091199184634    0.968599382948974  0.0000
  O2     O2        0.123868932955640    0.537999689282940    0.968456541855601  0.0000
  O2     O2        0.766976865938668    0.290567276931963    0.048694778475630  0.0000
  O2     O2        0.734797429871834    0.724337269079195    0.050353822744005  0.0000
  O3     O3        0.227870537222888    0.286840156650005    0.940560213035619  0.0000
  O2     O2        0.260633940192620    0.705206564136364    0.954687339577075  0.0000
