data_c00776.vasp
_audit_creation_method             Generated by GULP
_audit_author_name                 Salvador R. G. Balestra
_symmetry_space_group_name_H-M     'P 1             '
_symmetry_Int_Tables_number        1

loop_
_symmetry_equiv_pos_site_id
_symmetry_equiv_pos_as_xyz
_cell_length_a                       16.7758
_cell_length_b                        7.5489
_cell_length_c                       10.5766
_cell_angle_alpha                   90.1604
_cell_angle_beta                    90.3744
_cell_angle_gamma                   90.4667

loop_
_atom_site_label
_atom_site_type_symbol
_atom_site_fract_x
_atom_site_fract_y
_atom_site_fract_z
_atom_site_charge
  Ge     Ge        0.556730000000016    0.000000000000000    0.122129999999970  0.0000
  Ge     Ge        0.941324470834123    0.029875099964144    0.137226186238836  0.0000
  Ge     Ge        0.439498277276903    0.005149285861699    0.883810750560215  0.0000
  Ge     Ge        0.823440917195914    0.751952888123801    0.024655258350011  0.0000
  Si     Si        0.051607248673167    0.018062715099386    0.387997937513813  0.0000
  Si     Si        0.455977578467334    0.003570516924924    0.374106986391975  0.0000
  Si     Si        0.953061003115554    0.018254954127693    0.641794764934041  0.0000
  Si     Si        0.549023109902194    0.992986326767082    0.634931675924148  0.0000
  Si     Si        0.048269243745230    0.002952582210112    0.898118828264892  0.0000
  Si     Si        0.151892599480090    0.326345864064857    0.294557705777133  0.0000
  Si     Si        0.351635572654547    0.695454343755928    0.276995253596752  0.0000
  Si     Si        0.853688991627206    0.329022454387716    0.730141080837361  0.0000
  Si     Si        0.649272326919150    0.680102018935539    0.721756941091098  0.0000
  Si     Si        0.830964652720280    0.737492237144196    0.725313791099012  0.0000
  Si     Si        0.670331604556102    0.275656608783994    0.724124328821920  0.0000
  Si     Si        0.168106533754944    0.733280255522955    0.288938229747739  0.0000
  Si     Si        0.335464517521517    0.285517578016085    0.280055034258643  0.0000
  Si     Si        0.673856373293068    0.276875664666908    0.017501635276150  0.0000
  Si     Si        0.323620043327444    0.278367639872773    0.987935104260726  0.0000
  Si     Si        0.163085686114266    0.725528371711314    0.994729439731512  0.0000
  Si     Si        0.347796014173340    0.680492786042943    0.985016519576417  0.0000
  Si     Si        0.139274142401309    0.326192416702686    0.002113959894132  0.0000
  Si     Si        0.639461136699526    0.668809703574655    0.018007694606366  0.0000
  Si     Si        0.858757606081120    0.351983277362219    0.020786737997013  0.0000
  O2     O2        0.094148347580700    0.211034360551178    0.382940661023275  0.0000
  O2     O2        0.414231237411904    0.810895942002902    0.357841929887071  0.0000
  O2     O2        0.913764858450350    0.213703681433393    0.645380105459065  0.0000
  O2     O2        0.585536186155948    0.795378747661726    0.643336106299799  0.0000
  O2     O2        0.883331555666801    0.869223231961801    0.638702864281033  0.0000
  O2     O2        0.621766866927943    0.135263949916252    0.638736632912108  0.0000
  O2     O2        0.119319989351526    0.867862383957843    0.375542288907462  0.0000
  O2     O2        0.389032615878583    0.156157441971900    0.364306736652103  0.0000
  O2     O2        0.006727072165050    0.998658011970141    0.519200170786036  0.0000
  O2     O2        0.498323019316895    0.012996603762112    0.508517144618208  0.0000
  O3     O3        0.987098972122948    0.994351677397943    0.278323999416216  0.0000
  O3     O3        0.524240440186581    0.032451659722254    0.272613442911027  0.0000
  O2     O2        0.010917902803049    0.987433545199765    0.760271404736604  0.0000
  O3     O3        0.488208918387370    0.034185513157591    0.745511505694143  0.0000
  O3     O3        0.644278904372655    0.122591304260616    0.106225114336137  0.0000
  O1     O1        0.855644126431456    0.906001176597841    0.129549855293587  0.0000
  O3     O3        0.356333105627379    0.140545669643597    0.889987657085050  0.0000
  O2     O2        0.122954337220023    0.869094311433331    0.904661785030537  0.0000
  O3     O3        0.405905498690905    0.787807136452633    0.895829004617429  0.0000
  O2     O2        0.077037670729625    0.205815481496112    0.924219138481244  0.0000
  O3     O3        0.572768315255091    0.777708766794192    0.089860337551350  0.0000
  O3     O3        0.916890336945982    0.248891264080419    0.113783417635984  0.0000
  O1     O1        0.493678276446185    0.078768122912698    0.009945420231990  0.0000
  O3     O3        0.989503399525846    0.941829539233222    0.006999063739261  0.0000
  O2     O2        0.139664758713630    0.533877668568350    0.321704682643147  0.0000
  O2     O2        0.365295553293359    0.487449703833323    0.301481396656998  0.0000
  O2     O2        0.866137008408089    0.539090930654736    0.710530173959719  0.0000
  O2     O2        0.635184995762278    0.471155170197102    0.696977394357835  0.0000
  O2     O2        0.243133669869669    0.271358982146709    0.320561405015206  0.0000
  O2     O2        0.262402463754410    0.750614882224888    0.316500726874695  0.0000
  O2     O2        0.763773991980719    0.273640375286087    0.690038062941695  0.0000
  O2     O2        0.738516489036103    0.734532146124480    0.679787125000199  0.0000
  O2     O2        0.125839287565658    0.282258101824265    0.150263722863755  0.0000
  O2     O2        0.367583833432329    0.739848950328491    0.129955121986682  0.0000
  O2     O2        0.872241398028108    0.282973668040463    0.876444567692726  0.0000
  O2     O2        0.635568057121675    0.722315366344922    0.869253468415762  0.0000
  O3     O3        0.832470606954711    0.809935385741839    0.866932563322759  0.0000
  O2     O2        0.661619816127766    0.220114851311884    0.870506536620959  0.0000
  O2     O2        0.152039138774762    0.778506873401879    0.142001893996360  0.0000
  O2     O2        0.342656768078555    0.226137431760735    0.133995040108212  0.0000
  O2     O2        0.624540997281794    0.458856544344273    0.037464521544719  0.0000
  O3     O3        0.876429772107779    0.556672706887083    0.037989086963859  0.0000
  O2     O2        0.361950252184665    0.472521745502166    0.964752167686044  0.0000
  O2     O2        0.122660625363446    0.532148099918207    0.973093203998205  0.0000
  O2     O2        0.765766041321530    0.315681893482799    0.050249077169254  0.0000
  O3     O3        0.725684553882208    0.722439560762902    0.068537053072179  0.0000
  O2     O2        0.228998769404429    0.282398753832043    0.965723789682082  0.0000
  O2     O2        0.255449523523360    0.723245672735446    0.958154688383767  0.0000
