data_c00716.vasp
_audit_creation_method             Generated by GULP
_audit_author_name                 Salvador R. G. Balestra
_symmetry_space_group_name_H-M     'P 1             '
_symmetry_Int_Tables_number        1

loop_
_symmetry_equiv_pos_site_id
_symmetry_equiv_pos_as_xyz
_cell_length_a                       17.1442
_cell_length_b                        7.6440
_cell_length_c                       10.3192
_cell_angle_alpha                   90.9123
_cell_angle_beta                    90.2723
_cell_angle_gamma                   90.2640

loop_
_atom_site_label
_atom_site_type_symbol
_atom_site_fract_x
_atom_site_fract_y
_atom_site_fract_z
_atom_site_charge
  Ge     Ge        0.052090000000021    0.000000000000000    0.372269999999958  0.0000
  Ge     Ge        0.654555469044892    0.675048373200144    0.714035878717794  0.0000
  Ge     Ge        0.674488675924537    0.278054434139791    0.028851309230651  0.0000
  Ge     Ge        0.172716840461764    0.704818445537074    0.972187601379304  0.0000
  Si     Si        0.452612909578800    0.990051920328255    0.370787175869903  0.0000
  Si     Si        0.951472209427726    0.996265497745877    0.636950216089740  0.0000
  Si     Si        0.549705740062626    0.978937408395779    0.629840700270917  0.0000
  Si     Si        0.565060119183480    0.993234632919949    0.128159734942735  0.0000
  Si     Si        0.948954498568445    0.002142857679518    0.116428434360191  0.0000
  Si     Si        0.453020777218214    0.990768409257109    0.889542531831247  0.0000
  Si     Si        0.061144024018021    0.989326941135129    0.883571515965817  0.0000
  Si     Si        0.160874077225410    0.301391725769817    0.274902456631444  0.0000
  Si     Si        0.348847499438074    0.681903691530161    0.284193685412617  0.0000
  Si     Si        0.845949801548187    0.302421402204856    0.713440594543734  0.0000
  Si     Si        0.837164823106339    0.701017179898203    0.706580491709455  0.0000
  Si     Si        0.667149830441187    0.263104567899832    0.723020892908774  0.0000
  Si     Si        0.170561218935075    0.710051867388725    0.277337672028086  0.0000
  Si     Si        0.340519485321596    0.281535264012605    0.280844439967463  0.0000
  Si     Si        0.837642487099966    0.710587692699888    0.011323898386531  0.0000
  Si     Si        0.341491811566338    0.280182907911419    0.978338957992509  0.0000
  Si     Si        0.355182608344460    0.676253831138639    0.978858920522697  0.0000
  Si     Si        0.159909148778292    0.298465209125186    0.976701420406346  0.0000
  Si     Si        0.656636428794852    0.682414434569583    0.018878108846668  0.0000
  Si     Si        0.856005376236553    0.317524237826520    0.018231973483645  0.0000
  O3     O3        0.102352379861764    0.195568539752798    0.362246593619824  0.0000
  O2     O2        0.406919082917992    0.805270337420256    0.366823508572075  0.0000
  O2     O2        0.901825466215225    0.175231154601301    0.631464971435942  0.0000
  O3     O3        0.588919019362426    0.789965422390413    0.622566917011703  0.0000
  O2     O2        0.892306683765675    0.831202474505788    0.627572632023430  0.0000
  O2     O2        0.618816773593025    0.122727946956538    0.637346943074971  0.0000
  O3     O3        0.115906340353658    0.826821364638471    0.366071001153976  0.0000
  O2     O2        0.391532960188717    0.148788179161612    0.363407957157642  0.0000
  O3     O3        0.012588137070279    0.990512156345195    0.523954281417465  0.0000
  O2     O2        0.498139856346398    0.011748178798415    0.504144717848517  0.0000
  O3     O3        0.976633199517628    0.986653694574219    0.262489374086080  0.0000
  O2     O2        0.514018415948367    0.996579734703438    0.255729175358886  0.0000
  O2     O2        0.997576074650831    0.989266473081072    0.772040418742533  0.0000
  O2     O2        0.493055183188569    0.998960517111786    0.751832133723779  0.0000
  O3     O3        0.630453548828079    0.141730356356041    0.136974051919408  0.0000
  O2     O2        0.878964302714354    0.863856055448151    0.093187541818988  0.0000
  O2     O2        0.384501059452117    0.134617177699626    0.892107496334793  0.0000
  O3     O3        0.122616672343456    0.834918434498752    0.866779446610136  0.0000
  O2     O2        0.418655995122343    0.795934790217604    0.908187213358890  0.0000
  O2     O2        0.107540937065951    0.173667011381674    0.885058501891295  0.0000
  O2     O2        0.604949612385835    0.803410914857482    0.113682207415917  0.0000
  O2     O2        0.919877700621285    0.199821668177611    0.090212145235187  0.0000
  O2     O2        0.513909515825747    0.041121642479008    0.002208084534141  0.0000
  O2     O2        0.019959592940473    0.954315823484878    0.021464967210610  0.0000
  O2     O2        0.144181585262788    0.507631728719342    0.284634311105063  0.0000
  O2     O2        0.368636029566288    0.479823104689810    0.312509506416291  0.0000
  O2     O2        0.867764771664910    0.502910536999288    0.682579151867444  0.0000
  O3     O3        0.632519213847836    0.455227243167399    0.706619020115680  0.0000
  O2     O2        0.249823778784357    0.260699300293964    0.317758835999785  0.0000
  O2     O2        0.260449294254325    0.725067538815006    0.324962524747059  0.0000
  O2     O2        0.756557296322759    0.265573757018055    0.672736764880542  0.0000
  O3     O3        0.748428145491010    0.713540505946947    0.660544914987202  0.0000
  O2     O2        0.148117298437651    0.239306109436152    0.125454234637181  0.0000
  O2     O2        0.358445280728662    0.719718148286952    0.132213044204759  0.0000
  O2     O2        0.855567693074650    0.267316472625536    0.865940913869375  0.0000
  O3     O3        0.644215849118853    0.745249572295152    0.872977099762575  0.0000
  O2     O2        0.840789889524298    0.751580169556728    0.859096928819612  0.0000
  O3     O3        0.666258574803664    0.203330794005126    0.870987738379259  0.0000
  O3     O3        0.164228428204713    0.775620818494969    0.130827867710815  0.0000
  O2     O2        0.351716537759475    0.235584290600565    0.129375141272075  0.0000
  O3     O3        0.632612514983622    0.483050515523066    0.036811746265342  0.0000
  O2     O2        0.878418597576339    0.523250002627066    0.038151571713636  0.0000
  O2     O2        0.376961017247711    0.472729154076023    0.951899741325358  0.0000
  O3     O3        0.135289665703593    0.495680249423914    0.956329538129177  0.0000
  O3     O3        0.771227811599902    0.284448681201511    0.075043815039545  0.0000
  O2     O2        0.748229201409616    0.701264578033416    0.055849280054672  0.0000
  O2     O2        0.250780754634465    0.277698674764679    0.939363467542533  0.0000
  O3     O3        0.269394279947355    0.712287538432015    0.926807219678889  0.0000
