data_c00740.vasp
_audit_creation_method             Generated by GULP
_audit_author_name                 Salvador R. G. Balestra
_symmetry_space_group_name_H-M     'P 1             '
_symmetry_Int_Tables_number        1

loop_
_symmetry_equiv_pos_site_id
_symmetry_equiv_pos_as_xyz
_cell_length_a                       17.2038
_cell_length_b                        7.5930
_cell_length_c                       10.2688
_cell_angle_alpha                   90.3568
_cell_angle_beta                    91.1045
_cell_angle_gamma                   90.1448

loop_
_atom_site_label
_atom_site_type_symbol
_atom_site_fract_x
_atom_site_fract_y
_atom_site_fract_z
_atom_site_charge
  Ge     Ge        0.052090000000021    0.000000000000000    0.372269999999958  0.0000
  Ge     Ge        0.650442665862094    0.672745663237315    0.717049715012658  0.0000
  Ge     Ge        0.149489572477044    0.328667238213523    0.978691728042825  0.0000
  Ge     Ge        0.850775750632470    0.326292986505064    0.041971786754552  0.0000
  Si     Si        0.452832679348905    0.995879534806364    0.375489679321524  0.0000
  Si     Si        0.947838405016719    0.992812567585346    0.629549920312451  0.0000
  Si     Si        0.545621647559168    0.981067337174315    0.639689852940935  0.0000
  Si     Si        0.557938605077146    0.999672093860280    0.128657972207882  0.0000
  Si     Si        0.946750437008706    0.007372247895860    0.114648348200775  0.0000
  Si     Si        0.441876619494546    0.004082716111205    0.889940246576516  0.0000
  Si     Si        0.054548573879296    0.013937563756314    0.874164406842086  0.0000
  Si     Si        0.156843716484226    0.309543338251867    0.285452043521710  0.0000
  Si     Si        0.350692596091052    0.686810988658187    0.290455817221112  0.0000
  Si     Si        0.845418154466568    0.297173905323271    0.732466890044584  0.0000
  Si     Si        0.831559405632375    0.702511805964481    0.718495721153021  0.0000
  Si     Si        0.667009082301345    0.261930877311291    0.734969679080230  0.0000
  Si     Si        0.171811464734610    0.719191446517577    0.294017046618104  0.0000
  Si     Si        0.335480191490543    0.283383565963514    0.279986095497608  0.0000
  Si     Si        0.669103989916956    0.288577119608590    0.040429861570057  0.0000
  Si     Si        0.829750250129023    0.728048410336034    0.024843084689135  0.0000
  Si     Si        0.331639493752583    0.296103580191555    0.974170797287723  0.0000
  Si     Si        0.165876451610219    0.736923315735294    0.993166972803494  0.0000
  Si     Si        0.346016096172267    0.693274850347418    0.987987802166703  0.0000
  Si     Si        0.651270512773920    0.686934271774813    0.026114968266964  0.0000
  O3     O3        0.098841820410440    0.201722952708582    0.374290389125686  0.0000
  O2     O2        0.410796606444870    0.804742507648397    0.375373829044608  0.0000
  O2     O2        0.903143365139119    0.176955215838076    0.649376230063354  0.0000
  O3     O3        0.581077637026580    0.787479731134676    0.629328912820077  0.0000
  O2     O2        0.888492329201046    0.829641392670772    0.641021979772415  0.0000
  O2     O2        0.619698543074014    0.110194516346281    0.659241879863801  0.0000
  O3     O3        0.122936251462428    0.839098947070253    0.388940701664841  0.0000
  O2     O2        0.387762080712413    0.145689511409168    0.358350597119091  0.0000
  O3     O3        0.982556469979759    0.991505216690037    0.488107709219257  0.0000
  O2     O2        0.496984048748774    0.028991114298188    0.511031973041854  0.0000
  O3     O3        0.001920645719940    0.949879400743686    0.230300471283237  0.0000
  O2     O2        0.516490854390962    0.008003918320514    0.265250842537498  0.0000
  O2     O2        0.020188506605920    0.972367151740101    0.730988087265374  0.0000
  O2     O2        0.487582505262882    0.005990494761358    0.757778826594924  0.0000
  O2     O2        0.622906545797925    0.152189360316577    0.128675470951301  0.0000
  O2     O2        0.868421748625807    0.889091705690979    0.103897178080265  0.0000
  O2     O2        0.378898390851140    0.160252765806293    0.886419636884543  0.0000
  O2     O2        0.128277093629997    0.888005732697358    0.904210744606890  0.0000
  O2     O2        0.399272749921400    0.815904295414673    0.900658416078682  0.0000
  O3     O3        0.084198663367048    0.213631087155960    0.881867586540633  0.0000
  O2     O2        0.596146163518031    0.807374671352993    0.114038172239261  0.0000
  O3     O3        0.918136186270881    0.207631402312953    0.131574815778781  0.0000
  O2     O2        0.498220408865712    0.040410374475595    0.012089800568652  0.0000
  O2     O2        0.989147185553002    0.976025776084418    0.978490053332892  0.0000
  O2     O2        0.142862419955573    0.517807189928702    0.301791160577066  0.0000
  O2     O2        0.367237416107268    0.480044243708427    0.311762452959879  0.0000
  O2     O2        0.862774890957409    0.502558524454152    0.704369270016591  0.0000
  O3     O3        0.631584356789257    0.450578913261600    0.701870910373944  0.0000
  O2     O2        0.246404141845289    0.264529290646615    0.323966300397726  0.0000
  O2     O2        0.263043342320667    0.730138097309070    0.332329404755045  0.0000
  O2     O2        0.756414217675186    0.254072142509561    0.690026014464051  0.0000
  O3     O3        0.743827105472049    0.713754139305951    0.665012621948279  0.0000
  O3     O3        0.139091761056914    0.255069021339486    0.136343468815525  0.0000
  O2     O2        0.362475030301978    0.737331091740518    0.139740043259572  0.0000
  O3     O3        0.859848675474355    0.256148767850062    0.882832301612140  0.0000
  O3     O3        0.638954545723288    0.738668507721566    0.876902078130298  0.0000
  O2     O2        0.830498569856763    0.758773565383767    0.869848021400137  0.0000
  O2     O2        0.666609928386064    0.226903768480256    0.889790215104818  0.0000
  O2     O2        0.159583286810131    0.788435844400977    0.145809769116557  0.0000
  O2     O2        0.337533140558964    0.243016935328839    0.126141476323233  0.0000
  O2     O2        0.630154890178812    0.482352494838456    0.049936626442252  0.0000
  O3     O3        0.873066902685246    0.546933626956881    0.058002947409107  0.0000
  O2     O2        0.367432227757413    0.491561377226503    0.956262034409293  0.0000
  O3     O3        0.126226076337904    0.549160609031303    0.967169097012559  0.0000
  O3     O3        0.756926742578959    0.294580427856402    0.092091866562917  0.0000
  O2     O2        0.740879175723927    0.716766206989680    0.069394926906781  0.0000
  O3     O3        0.242913122392207    0.294028954850368    0.927829742956868  0.0000
  O2     O2        0.255794330373317    0.724568602189277    0.953990960125894  0.0000
