data_c00791.vasp
_audit_creation_method             Generated by GULP
_audit_author_name                 Salvador R. G. Balestra
_symmetry_space_group_name_H-M     'P 1             '
_symmetry_Int_Tables_number        1

loop_
_symmetry_equiv_pos_site_id
_symmetry_equiv_pos_as_xyz
_cell_length_a                       16.8982
_cell_length_b                        7.5797
_cell_length_c                       10.4348
_cell_angle_alpha                   90.1086
_cell_angle_beta                    90.6840
_cell_angle_gamma                   89.5663

loop_
_atom_site_label
_atom_site_type_symbol
_atom_site_fract_x
_atom_site_fract_y
_atom_site_fract_z
_atom_site_charge
  Ge     Ge        0.556730000000016    0.000000000000000    0.122129999999970  0.0000
  Ge     Ge        0.946687814456714    0.984127604908842    0.103278103371893  0.0000
  Ge     Ge        0.164328908161015    0.266577486141789    0.281935939831185  0.0000
  Ge     Ge        0.166355903678360    0.264573928941139    0.970954792929831  0.0000
  Si     Si        0.043938701374099    0.990203369042328    0.369120567486017  0.0000
  Si     Si        0.448589900228139    0.005782820131305    0.369313696709735  0.0000
  Si     Si        0.940956788656507    0.974239601218508    0.618401138743190  0.0000
  Si     Si        0.539594862417185    0.004821827052645    0.635331980471925  0.0000
  Si     Si        0.440077210078861    0.997150578933704    0.887225913032711  0.0000
  Si     Si        0.053936268914691    0.989457347241256    0.859849389609225  0.0000
  Si     Si        0.329077299588363    0.723376179964607    0.276960596813798  0.0000
  Si     Si        0.824348717147466    0.263818935442909    0.715281444898966  0.0000
  Si     Si        0.660202416930811    0.717099486531295    0.722253708254471  0.0000
  Si     Si        0.841904347455370    0.668563990652978    0.713845784864652  0.0000
  Si     Si        0.642745754001266    0.311675208736670    0.721725425525851  0.0000
  Si     Si        0.145539727090412    0.683327956356427    0.274063774839761  0.0000
  Si     Si        0.346183737747340    0.321093434498796    0.282258003626095  0.0000
  Si     Si        0.643681650485046    0.325042207655303    0.019116729383599  0.0000
  Si     Si        0.854505483426178    0.657746808195359    0.010963053631703  0.0000
  Si     Si        0.348096532618008    0.322785282807561    0.978097583034581  0.0000
  Si     Si        0.142516298870049    0.673634786989244    0.978633700184166  0.0000
  Si     Si        0.326858500353791    0.718113461784990    0.978501959088707  0.0000
  Si     Si        0.672428868662519    0.720831649286692    0.019559485423732  0.0000
  Si     Si        0.825569144830471    0.262100318508422    0.013478017625486  0.0000
  O3     O3        0.110565446410774    0.137761469776449    0.384372325909841  0.0000
  O2     O2        0.376398344304034    0.867313726591788    0.359430567772438  0.0000
  O2     O2        0.874770703289886    0.127709352152034    0.630683995799517  0.0000
  O2     O2        0.606928926546626    0.852470448931750    0.639931467351910  0.0000
  O2     O2        0.899320899223148    0.783840858286440    0.626262283388861  0.0000
  O2     O2        0.581298441938269    0.195853996785860    0.639235086006869  0.0000
  O2     O2        0.087138968611235    0.799259806010706    0.360889552046992  0.0000
  O2     O2        0.415453758701612    0.204237542737721    0.347271109329200  0.0000
  O2     O2        0.981073364665788    0.989670580570020    0.481781456963011  0.0000
  O2     O2        0.488648666898039    0.988913337587405    0.507257547576054  0.0000
  O3     O3        0.996592917470036    0.035222463438881    0.239884633367768  0.0000
  O3     O3        0.514708830913163    0.961975422231624    0.266760600461769  0.0000
  O2     O2        0.009409594936110    0.992825032324447    0.724511714219233  0.0000
  O2     O2        0.478331250109883    0.982262774277217    0.749390603181997  0.0000
  O3     O3        0.584588290784127    0.217845318869468    0.106201972902737  0.0000
  O3     O3        0.918086611041758    0.765798736267146    0.092026627370366  0.0000
  O2     O2        0.415518349217565    0.200644294216914    0.915439025697234  0.0000
  O2     O2        0.085250559887633    0.790594551584649    0.888896905040037  0.0000
  O2     O2        0.363587764803659    0.868898817832908    0.890214450938998  0.0000
  O3     O3        0.126360392756382    0.123237156746827    0.859418712738798  0.0000
  O3     O3        0.639733823717771    0.866404335387956    0.113310084213527  0.0000
  O3     O3        0.862133637596885    0.114592564537596    0.101950527273446  0.0000
  O3     O3        0.497575218701081    0.928709499505157    0.997952859775600  0.0000
  O3     O3        0.999054543566398    0.056873517254822    0.973981744738859  0.0000
  O3     O3        0.128627355366873    0.480444140192540    0.292546719281247  0.0000
  O2     O2        0.363211298440574    0.528146015339974    0.308105270982531  0.0000
  O2     O2        0.855418849428160    0.461124525675654    0.687010198649392  0.0000
  O2     O2        0.628204886293067    0.519337981232983    0.697245126100383  0.0000
  O3     O3        0.261704935129585    0.268625407540410    0.335415264607432  0.0000
  O2     O2        0.236352554277599    0.730958004773292    0.311187149511072  0.0000
  O2     O2        0.731276875744447    0.255993342526446    0.679632148243180  0.0000
  O2     O2        0.751638003843497    0.724279622325600    0.680068048069529  0.0000
  O1     O1        0.159085083888554    0.193612566147806    0.126408844397885  0.0000
  O2     O2        0.338878701413128    0.770468201680873    0.127462136269209  0.0000
  O2     O2        0.834559769600673    0.210859457976258    0.863569602532300  0.0000
  O2     O2        0.656481118445724    0.773099459472092    0.870955678505825  0.0000
  O2     O2        0.864081632122699    0.710759411204271    0.861438680530294  0.0000
  O2     O2        0.627992450643101    0.269325452337053    0.870874112228155  0.0000
  O2     O2        0.128249333917978    0.736591288143936    0.125448759247599  0.0000
  O2     O2        0.344410195396089    0.284442166738619    0.130010445260422  0.0000
  O2     O2        0.629870070800383    0.532827435590288    0.041880787928671  0.0000
  O2     O2        0.869295124196638    0.450167187646671    0.033607356220325  0.0000
  O2     O2        0.368595859159771    0.528339122617612    0.952692055805472  0.0000
  O3     O3        0.121909987339031    0.471402800596926    0.962311110488808  0.0000
  O2     O2        0.734309536874247    0.278111123569241    0.052421654050235  0.0000
  O2     O2        0.765479748089868    0.706029002864985    0.050564166381624  0.0000
  O3     O3        0.263056061133407    0.279805627478934    0.921209489950942  0.0000
  O2     O2        0.234232848979940    0.704854951387123    0.944239492266888  0.0000
