data_c00728.vasp
_audit_creation_method             Generated by GULP
_audit_author_name                 Salvador R. G. Balestra
_symmetry_space_group_name_H-M     'P 1             '
_symmetry_Int_Tables_number        1

loop_
_symmetry_equiv_pos_site_id
_symmetry_equiv_pos_as_xyz
_cell_length_a                       17.1895
_cell_length_b                        7.6238
_cell_length_c                       10.2611
_cell_angle_alpha                   90.1578
_cell_angle_beta                    89.8236
_cell_angle_gamma                   90.8317

loop_
_atom_site_label
_atom_site_type_symbol
_atom_site_fract_x
_atom_site_fract_y
_atom_site_fract_z
_atom_site_charge
  Ge     Ge        0.052090000000021    0.000000000000000    0.372269999999958  0.0000
  Ge     Ge        0.664367613200175    0.714623855750574    0.718295623566601  0.0000
  Ge     Ge        0.353550536243327    0.348213854941306    0.973872722693596  0.0000
  Ge     Ge        0.330904095284015    0.758931761688680    0.982905788205290  0.0000
  Si     Si        0.449455336456041    0.027910740504538    0.380873972646146  0.0000
  Si     Si        0.954341663778585    0.005889358194682    0.639130146491602  0.0000
  Si     Si        0.551857491129913    0.004095995832344    0.633950857363159  0.0000
  Si     Si        0.551479037403854    0.008070028487813    0.128220032606223  0.0000
  Si     Si        0.941584721154807    0.020525664978335    0.116872469908462  0.0000
  Si     Si        0.446126623234458    0.035041517523704    0.882816805591512  0.0000
  Si     Si        0.056392796448556    0.007247962212690    0.885242340079603  0.0000
  Si     Si        0.173008759042300    0.289941177968197    0.288931589722806  0.0000
  Si     Si        0.334668653237848    0.738131205660453    0.291912566277943  0.0000
  Si     Si        0.840453900213963    0.297896171569377    0.737290670029445  0.0000
  Si     Si        0.846592438360273    0.701108221529037    0.728756534403016  0.0000
  Si     Si        0.661220267653777    0.302820300290828    0.725470573400727  0.0000
  Si     Si        0.156628086582169    0.690758914369376    0.297213305687365  0.0000
  Si     Si        0.351602483795558    0.332630538474739    0.281927277215999  0.0000
  Si     Si        0.653235096934958    0.317440598628791    0.029119108222938  0.0000
  Si     Si        0.839792707855266    0.707197331826696    0.035428593059773  0.0000
  Si     Si        0.149578565070975    0.696755375052299    0.992830864636363  0.0000
  Si     Si        0.169486239680308    0.298705735694751    0.984949235979489  0.0000
  Si     Si        0.660664832518699    0.721549221238140    0.027762129514065  0.0000
  Si     Si        0.831963088945895    0.309367977043211    0.042205309449692  0.0000
  O3     O3        0.125890083149774    0.156226124375665    0.377362757497612  0.0000
  O2     O2        0.385781491091977    0.869996387324268    0.380886940761060  0.0000
  O2     O2        0.895524682488135    0.165121828725218    0.662438129721971  0.0000
  O3     O3        0.604739545261089    0.834943911863694    0.619979289468925  0.0000
  O2     O2        0.909456352525250    0.819931120980977    0.653339549117734  0.0000
  O2     O2        0.609428294150953    0.172125004992798    0.639094639906220  0.0000
  O3     O3        0.096021713883256    0.798034128689145    0.381671594723151  0.0000
  O2     O2        0.409332177153325    0.217067964787555    0.368873489503289  0.0000
  O3     O3        0.985865406405256    0.024128579587468    0.494707519611807  0.0000
  O2     O2        0.491977951238796    0.025255582180878    0.518105179696389  0.0000
  O3     O3        0.002747048069614    0.030712734061118    0.229689854284557  0.0000
  O2     O2        0.513608141979538    0.999080854039328    0.269742075767576  0.0000
  O2     O2        0.027552262635130    0.013448261273042    0.736759866060328  0.0000
  O2     O2        0.502390052524478    0.985374273060492    0.766102973922189  0.0000
  O2     O2        0.594455918684726    0.196752381121510    0.111927370421436  0.0000
  O2     O2        0.895250277907087    0.834326424534760    0.119346856882370  0.0000
  O3     O3        0.420443309257742    0.235406280719933    0.880797918297566  0.0000
  O2     O2        0.087467860132096    0.813006627353873    0.916134205049555  0.0000
  O3     O3        0.367260990809609    0.920196543267058    0.883148903182135  0.0000
  O2     O2        0.123518874881861    0.154777359581866    0.899800408001122  0.0000
  O2     O2        0.611845692464203    0.849209497112952    0.119966647029598  0.0000
  O2     O2        0.879548003067590    0.177081142220000    0.131607877466437  0.0000
  O2     O2        0.486061123141981    0.979454497528690    0.019182924607337  0.0000
  O2     O2        0.984665089953656    0.049467545222732    0.979161236492759  0.0000
  O2     O2        0.139676726951202    0.484280387028595    0.313117303444268  0.0000
  O2     O2        0.368636560346019    0.541066626150856    0.299239387334262  0.0000
  O2     O2        0.866729650964209    0.497056618076685    0.704823796194987  0.0000
  O3     O3        0.638054303701453    0.498590900549909    0.694626754331257  0.0000
  O2     O2        0.263719872512815    0.288546644982037    0.327358413378948  0.0000
  O2     O2        0.245141500133957    0.736335369724395    0.340775657555029  0.0000
  O2     O2        0.751565624333778    0.269126449235521    0.690992753613719  0.0000
  O3     O3        0.761170029781415    0.741273328655515    0.677267576084662  0.0000
  O2     O2        0.166379802282272    0.239162330799723    0.136044561467151  0.0000
  O3     O3        0.337865987191772    0.809530322447925    0.146148987857465  0.0000
  O2     O2        0.844279745991616    0.262051323788209    0.891038128002223  0.0000
  O3     O3        0.652041873838877    0.777238987892340    0.878720230919866  0.0000
  O2     O2        0.850669627646812    0.744847333871323    0.882423846568443  0.0000
  O2     O2        0.645821484305164    0.261976311196876    0.878175207807067  0.0000
  O2     O2        0.145912646165175    0.746501837996813    0.146060126358766  0.0000
  O3     O3        0.364806522731643    0.280248693348162    0.133274400640961  0.0000
  O2     O2        0.630240664176215    0.520709407615328    0.045812540315662  0.0000
  O2     O2        0.861775053744224    0.507664389853652    0.069888604681126  0.0000
  O1     O1        0.375685523694546    0.563600028330903    0.953760677176046  0.0000
  O2     O2        0.130046405533654    0.489987070102682    0.971181978989103  0.0000
  O2     O2        0.740987397701200    0.289752741681528    0.078361713873179  0.0000
  O2     O2        0.750192441570320    0.738782378908224    0.072420666844113  0.0000
  O3     O3        0.257119944782350    0.308356341612795    0.933969266876172  0.0000
  O3     O3        0.234625524061229    0.736356171078878    0.939025085437563  0.0000
