data_c00744.vasp
_audit_creation_method             Generated by GULP
_audit_author_name                 Salvador R. G. Balestra
_symmetry_space_group_name_H-M     'P 1             '
_symmetry_Int_Tables_number        1

loop_
_symmetry_equiv_pos_site_id
_symmetry_equiv_pos_as_xyz
_cell_length_a                       17.1208
_cell_length_b                        7.6065
_cell_length_c                       10.2763
_cell_angle_alpha                   90.3535
_cell_angle_beta                    90.4981
_cell_angle_gamma                   89.5974

loop_
_atom_site_label
_atom_site_type_symbol
_atom_site_fract_x
_atom_site_fract_y
_atom_site_fract_z
_atom_site_charge
  Ge     Ge        0.052090000000021    0.000000000000000    0.372269999999958  0.0000
  Ge     Ge        0.644198665065936    0.327550730194788    0.025467962054935  0.0000
  Ge     Ge        0.850153951452396    0.683585004168177    0.035470089411709  0.0000
  Ge     Ge        0.331255080702240    0.717201015601806    0.973843888535932  0.0000
  Si     Si        0.452527696532712    0.003015067851829    0.372554902866161  0.0000
  Si     Si        0.949989373384821    0.992788594901304    0.633600757663483  0.0000
  Si     Si        0.553412702212954    0.010967601381639    0.631183946197826  0.0000
  Si     Si        0.549247645316932    0.008968271636457    0.117674041052042  0.0000
  Si     Si        0.944778282959164    0.004052833591432    0.117012537607665  0.0000
  Si     Si        0.440967943266954    0.999876343352672    0.874723217131813  0.0000
  Si     Si        0.054739937193300    0.993179579134248    0.880584697891436  0.0000
  Si     Si        0.171968857861899    0.280260707821445    0.290146574097859  0.0000
  Si     Si        0.336452402429295    0.719376226194148    0.282958790452005  0.0000
  Si     Si        0.832700418947002    0.286655553784763    0.730602764843024  0.0000
  Si     Si        0.669129262027143    0.719801752980380    0.719799413162177  0.0000
  Si     Si        0.847909434504661    0.689866969743023    0.725974030938453  0.0000
  Si     Si        0.655221892270087    0.315976255575094    0.716337498472765  0.0000
  Si     Si        0.157108026245349    0.684806814840322    0.289437918896877  0.0000
  Si     Si        0.351937739299698    0.312901438334563    0.279915843958599  0.0000
  Si     Si        0.347436527534836    0.312461580380212    0.978556185619003  0.0000
  Si     Si        0.148556601540245    0.678661953211487    0.985644016773721  0.0000
  Si     Si        0.165569379870568    0.278464865964926    0.988511083650324  0.0000
  Si     Si        0.666632785951702    0.729296620096068    0.025596937307484  0.0000
  Si     Si        0.826267892481714    0.284078859391389    0.037683010281258  0.0000
  O3     O3        0.126014660544515    0.153854699505982    0.383627554584628  0.0000
  O2     O2        0.387370564329385    0.850803914376743    0.371767631149023  0.0000
  O2     O2        0.887618004140047    0.148003727965697    0.658416697114717  0.0000
  O2     O2        0.617188722199924    0.854120765651010    0.635808642528263  0.0000
  O2     O2        0.907417581714451    0.804317865344220    0.641172744438137  0.0000
  O2     O2        0.597464214836387    0.197731827354010    0.627583883994767  0.0000
  O3     O3        0.096608436779602    0.795606992793140    0.373235527312957  0.0000
  O2     O2        0.411561331273665    0.195008412691152    0.364170101941132  0.0000
  O3     O3        0.984254241439309    0.015973567702509    0.492267036318843  0.0000
  O2     O2        0.500651047850011    0.990153067899112    0.504624726727857  0.0000
  O3     O3        0.002254783234636    0.051567805495737    0.231855178434901  0.0000
  O2     O2        0.512625843133043    0.970597691584554    0.256508943705924  0.0000
  O2     O2        0.022846423490321    0.003715927738710    0.733983736752499  0.0000
  O2     O2        0.497045871672507    0.998103364453463    0.753441949429962  0.0000
  O3     O3        0.574419080082752    0.210274885260032    0.106387026378183  0.0000
  O3     O3        0.914847947913513    0.805129913225077    0.127282828749273  0.0000
  O2     O2        0.399921254634020    0.190593871712601    0.886248640835684  0.0000
  O2     O2        0.085777626480540    0.795249321839399    0.906615412403220  0.0000
  O3     O3        0.374671707263155    0.854323862275895    0.864822276666103  0.0000
  O2     O2        0.123735881960545    0.135193229793251    0.897379924225465  0.0000
  O2     O2        0.626927749071989    0.890298479727288    0.102129007916490  0.0000
  O2     O2        0.867573140204352    0.127227020522579    0.116409944961940  0.0000
  O2     O2        0.488467696746453    0.950812606134010    0.005735185576090  0.0000
  O2     O2        0.986068667672834    0.040109214609153    0.979249802223353  0.0000
  O2     O2        0.141726465282754    0.479303073996631    0.311504425660330  0.0000
  O2     O2        0.368495436608884    0.519785460072808    0.300185486361007  0.0000
  O2     O2        0.866422357638404    0.482222419933307    0.708121839523340  0.0000
  O2     O2        0.636770889530545    0.522837020910197    0.696501545833868  0.0000
  O2     O2        0.264089582592340    0.269520987111035    0.322569205561660  0.0000
  O2     O2        0.246387432226940    0.730669933877573    0.328228574915339  0.0000
  O2     O2        0.744479824750934    0.275401387220925    0.673933365119735  0.0000
  O2     O2        0.759426692801724    0.729803923343347    0.676866575190203  0.0000
  O2     O2        0.158230404165744    0.222817813364811    0.139235825112878  0.0000
  O3     O3        0.341537334454142    0.779342998297847    0.134451226481587  0.0000
  O2     O2        0.826837144176942    0.246136456388510    0.882798706752224  0.0000
  O2     O2        0.666133237895070    0.770724995525184    0.871365436915490  0.0000
  O3     O3        0.860247206519294    0.744136698223125    0.874894889316220  0.0000
  O3     O3        0.640159671874480    0.263909516003702    0.864285974774378  0.0000
  O2     O2        0.143640816361487    0.733331004563968    0.137638459385197  0.0000
  O2     O2        0.364141017666323    0.261433896643252    0.128944210285365  0.0000
  O3     O3        0.621818735173644    0.547456378833139    0.046009306362773  0.0000
  O3     O3        0.871151754456476    0.465359944365136    0.062930254357435  0.0000
  O3     O3        0.370740451597398    0.509988430372781    0.952796622497665  0.0000
  O2     O2        0.127809814259306    0.472076533580366    0.967317532215215  0.0000
  O3     O3        0.737786347122697    0.295337952260540    0.084363462838049  0.0000
  O3     O3        0.754045186349684    0.714390587425787    0.078375288313438  0.0000
  O2     O2        0.255903474600327    0.283470882063910    0.947758473610267  0.0000
  O3     O3        0.233643902126432    0.715056274766949    0.932572108289887  0.0000
