data_c00719.vasp
_audit_creation_method             Generated by GULP
_audit_author_name                 Salvador R. G. Balestra
_symmetry_space_group_name_H-M     'P 1             '
_symmetry_Int_Tables_number        1

loop_
_symmetry_equiv_pos_site_id
_symmetry_equiv_pos_as_xyz
_cell_length_a                       17.0755
_cell_length_b                        7.6056
_cell_length_c                       10.3086
_cell_angle_alpha                   89.7750
_cell_angle_beta                    90.0167
_cell_angle_gamma                   90.7905

loop_
_atom_site_label
_atom_site_type_symbol
_atom_site_fract_x
_atom_site_fract_y
_atom_site_fract_z
_atom_site_charge
  Ge     Ge        0.052090000000021    0.000000000000000    0.372269999999958  0.0000
  Ge     Ge        0.658251985403352    0.682527141854351    0.732376299371364  0.0000
  Ge     Ge        0.676863840022381    0.247991479436356    0.036888200092557  0.0000
  Ge     Ge        0.650623873732368    0.660389635546706    0.043900548027885  0.0000
  Si     Si        0.453759784642968    0.000612317165183    0.388890502470269  0.0000
  Si     Si        0.958402004079010    0.008319259302546    0.641225832343324  0.0000
  Si     Si        0.555176621601427    0.989198273787820    0.643220573858435  0.0000
  Si     Si        0.562342964735632    0.974202271319946    0.145394313294567  0.0000
  Si     Si        0.951722928688921    0.998435954923820    0.108270736543951  0.0000
  Si     Si        0.456273630896528    0.007755722158316    0.901267165164618  0.0000
  Si     Si        0.069056790786151    0.003517719543275    0.877260458310770  0.0000
  Si     Si        0.159930075607657    0.312249343539897    0.290318418159780  0.0000
  Si     Si        0.353686523305735    0.690909536866446    0.296456471898419  0.0000
  Si     Si        0.855169078685631    0.313774812395599    0.731174775931933  0.0000
  Si     Si        0.837041333596026    0.710914063762087    0.731498757832101  0.0000
  Si     Si        0.676288935827588    0.264284376801941    0.731899957888167  0.0000
  Si     Si        0.172732579571797    0.719007255862010    0.290014977942090  0.0000
  Si     Si        0.340562578709414    0.287828232542654    0.295373355546967  0.0000
  Si     Si        0.831583373871272    0.706206804753271    0.039056595560423  0.0000
  Si     Si        0.343923438087922    0.292774662562602    0.992622654688501  0.0000
  Si     Si        0.175996096864322    0.718769131444169    0.989684937073035  0.0000
  Si     Si        0.357658822664150    0.692555925541353    0.995091899776120  0.0000
  Si     Si        0.162936483665307    0.315216199872324    0.989819494784644  0.0000
  Si     Si        0.858967482687350    0.318950491226868    0.036283046349940  0.0000
  O3     O3        0.099005923412605    0.202519424110159    0.374838708878081  0.0000
  O2     O2        0.410220819918874    0.810783242383794    0.384512274217550  0.0000
  O2     O2        0.916975762165788    0.196804953386744    0.653831551291506  0.0000
  O3     O3        0.591136453822326    0.797012784618345    0.640098728130215  0.0000
  O2     O2        0.896907122952808    0.855604412097884    0.678306571996141  0.0000
  O2     O2        0.626875694173028    0.130867983597560    0.641138884019050  0.0000
  O3     O3        0.123872820162668    0.841935648464478    0.381551681989547  0.0000
  O2     O2        0.389729014290491    0.153793911515853    0.381557915545449  0.0000
  O3     O3        0.985758774131729    0.983071075228161    0.495773951079236  0.0000
  O2     O2        0.500112431679889    0.020921746541965    0.520956548787839  0.0000
  O3     O3        0.001461647038397    0.956723759451459    0.232484055961269  0.0000
  O2     O2        0.515021376367989    0.022269738202372    0.272881852153703  0.0000
  O2     O2        0.035387782280990    0.998949415117191    0.732097801125004  0.0000
  O2     O2        0.501169563449329    0.022972142783724    0.767515600216132  0.0000
  O3     O3        0.642755562487814    0.085055594479301    0.138474536992153  0.0000
  O2     O2        0.876841522161436    0.868010857073785    0.104313355311207  0.0000
  O2     O2        0.390225116389549    0.156977276033608    0.904637488471946  0.0000
  O2     O2        0.133423216485582    0.851780002072721    0.892763296331482  0.0000
  O2     O2        0.415926728855390    0.814475291645965    0.911572493696503  0.0000
  O2     O2        0.107611908089609    0.195884804217030    0.899769157596872  0.0000
  O3     O3        0.583279985524222    0.770936852646520    0.138742521020423  0.0000
  O2     O2        0.921977611937711    0.199959822160703    0.111731894011308  0.0000
  O2     O2        0.515807428356741    0.043798784558113    0.018358444248755  0.0000
  O2     O2        0.999736187747514    0.963393493361498    0.977358650410231  0.0000
  O2     O2        0.145316480719548    0.517751103983568    0.310980840839129  0.0000
  O2     O2        0.368956844493334    0.486490463377795    0.327108556508410  0.0000
  O2     O2        0.873642008760670    0.519243652816346    0.702591680007612  0.0000
  O3     O3        0.641510164482642    0.457744719491600    0.726234788488811  0.0000
  O2     O2        0.248936366665149    0.264773867953007    0.329186948346425  0.0000
  O2     O2        0.264216417619148    0.738088979761965    0.325819876434688  0.0000
  O2     O2        0.766931976078922    0.269763707142521    0.683908423329243  0.0000
  O3     O3        0.751382717861873    0.726170461743545    0.670685154971749  0.0000
  O2     O2        0.146207314998635    0.261946029433141    0.139071398688818  0.0000
  O2     O2        0.373115002868901    0.733895247203238    0.146277306259226  0.0000
  O2     O2        0.863255731571554    0.272350210853976    0.883580304083312  0.0000
  O1     O1        0.642866612425097    0.743176827159155    0.889439211015019  0.0000
  O2     O2        0.819648571722733    0.732233805379304    0.884663543899718  0.0000
  O3     O3        0.674758637652471    0.186066050176863    0.876287205101513  0.0000
  O2     O2        0.160702040744284    0.773318638725242    0.138741221250045  0.0000
  O2     O2        0.354103792453462    0.245887918259712    0.144070344573987  0.0000
  O1     O1        0.628112490508681    0.442107360986862    0.053139392496334  0.0000
  O2     O2        0.879528413090690    0.524937893396040    0.061873800015496  0.0000
  O2     O2        0.376670707224386    0.489797710434635    0.964881588872947  0.0000
  O2     O2        0.144425184408473    0.520197867893581    0.965332060200047  0.0000
  O3     O3        0.772477378904250    0.282564008076301    0.086263670466339  0.0000
  O3     O3        0.746007390377083    0.692183103454276    0.099224020115929  0.0000
  O2     O2        0.252921493541195    0.279443243527228    0.954415078545810  0.0000
  O2     O2        0.268144880332944    0.731716676358066    0.959013255807047  0.0000
