data_c00746.vasp
_audit_creation_method             Generated by GULP
_audit_author_name                 Salvador R. G. Balestra
_symmetry_space_group_name_H-M     'P 1             '
_symmetry_Int_Tables_number        1

loop_
_symmetry_equiv_pos_site_id
_symmetry_equiv_pos_as_xyz
_cell_length_a                       17.0451
_cell_length_b                        7.6167
_cell_length_c                       10.3493
_cell_angle_alpha                   89.5550
_cell_angle_beta                    89.9879
_cell_angle_gamma                   90.6354

loop_
_atom_site_label
_atom_site_type_symbol
_atom_site_fract_x
_atom_site_fract_y
_atom_site_fract_z
_atom_site_charge
  Ge     Ge        0.052090000000021    0.000000000000000    0.372269999999958  0.0000
  Ge     Ge        0.670733962662593    0.237384193875732    0.005128691118865  0.0000
  Ge     Ge        0.829832596411116    0.707085508769156    0.019198012313907  0.0000
  Ge     Ge        0.642250709989348    0.642324168953317    0.017395254061970  0.0000
  Si     Si        0.454189253250441    0.993037874122584    0.358242812477793  0.0000
  Si     Si        0.951072236408703    0.003702350064316    0.635677309482722  0.0000
  Si     Si        0.552186556623226    0.983903622688443    0.618005653568032  0.0000
  Si     Si        0.556230667632311    0.961401240151221    0.110251503031252  0.0000
  Si     Si        0.943170908089264    0.997582507916780    0.121580983728311  0.0000
  Si     Si        0.447996293660460    0.997515366778196    0.869576643561150  0.0000
  Si     Si        0.055746086007362    0.984166758480205    0.888313674126602  0.0000
  Si     Si        0.161119653645857    0.303268152751769    0.275267686574944  0.0000
  Si     Si        0.349952647830104    0.687954723106037    0.265105965655535  0.0000
  Si     Si        0.847471901104887    0.312251904929491    0.705365610131040  0.0000
  Si     Si        0.652982609132616    0.675536238591989    0.711154705193932  0.0000
  Si     Si        0.832621716104979    0.714782408526263    0.711166209213846  0.0000
  Si     Si        0.669269250957135    0.269602725104191    0.699510968398848  0.0000
  Si     Si        0.169436462289296    0.709654860589562    0.266954791079006  0.0000
  Si     Si        0.342280720802002    0.284108878344045    0.268893354035333  0.0000
  Si     Si        0.338288616418810    0.282307633373950    0.968034029390258  0.0000
  Si     Si        0.167913758537017    0.699624757074119    0.967198524821976  0.0000
  Si     Si        0.349256355709643    0.682893385800861    0.964110337927652  0.0000
  Si     Si        0.156309736820818    0.297071047596603    0.976566615734366  0.0000
  Si     Si        0.853009970998638    0.310752615010145    0.008111080121144  0.0000
  O3     O3        0.104492253348178    0.194777253652882    0.366903756919913  0.0000
  O2     O2        0.407439949351249    0.808959055891334    0.348581233058469  0.0000
  O2     O2        0.909643594102108    0.194626178214707    0.627871523626172  0.0000
  O2     O2        0.593888290210966    0.794758061983880    0.626973070618952  0.0000
  O2     O2        0.883950615409142    0.852440238950602    0.627109676765234  0.0000
  O2     O2        0.616787783664108    0.140618814095225    0.611109009904835  0.0000
  O3     O3        0.116965726582668    0.830284623006311    0.353619804761100  0.0000
  O2     O2        0.394057333380728    0.155013865732001    0.356015459345738  0.0000
  O3     O3        0.012693012224627    0.981825515581751    0.523599337765563  0.0000
  O2     O2        0.501889517832988    0.992592745592950    0.489166791154334  0.0000
  O3     O3        0.976179468747890    0.995981857484757    0.264686364881041  0.0000
  O2     O2        0.514584934216764    0.017057691732666    0.241034119462196  0.0000
  O2     O2        0.997844821432750    0.980953145724331    0.769052029922090  0.0000
  O2     O2        0.492632613135959    0.013914657715670    0.735372099618548  0.0000
  O3     O3        0.639246423796870    0.061686606852826    0.096708286642938  0.0000
  O3     O3        0.871138245489684    0.862719539655847    0.116801584775647  0.0000
  O2     O2        0.382615222886862    0.148396795631992    0.875871887796960  0.0000
  O2     O2        0.119822581983747    0.830108849296397    0.874918411113215  0.0000
  O2     O2        0.406575649555686    0.805530622139450    0.879023681130682  0.0000
  O2     O2        0.099083784538093    0.173982116725932    0.893132753015852  0.0000
  O3     O3        0.572159150322398    0.756011919371739    0.103467789357332  0.0000
  O2     O2        0.915046548484205    0.192244615178571    0.083810408612462  0.0000
  O2     O2        0.507860593644823    0.032175188156111    0.986069839792711  0.0000
  O2     O2        0.008489543193505    0.937662413991663    0.018780337898844  0.0000
  O2     O2        0.144710894589268    0.508277126546371    0.292837972630343  0.0000
  O2     O2        0.368607421060732    0.484828937074344    0.294858443146704  0.0000
  O2     O2        0.867118414406131    0.519358240082114    0.688996841341019  0.0000
  O2     O2        0.635165164051999    0.467272115461814    0.693399513505546  0.0000
  O2     O2        0.251477261280997    0.259314594730109    0.307470245697956  0.0000
  O2     O2        0.261048545161998    0.733793281433462    0.302419683505500  0.0000
  O2     O2        0.759873863259813    0.272861332236108    0.651620336069116  0.0000
  O2     O2        0.741944348158702    0.717548653631584    0.665112978642882  0.0000
  O2     O2        0.142941501232920    0.248199091851480    0.127004989816052  0.0000
  O2     O2        0.364384897422217    0.729865631384480    0.113789206642093  0.0000
  O2     O2        0.851659289918754    0.260610660767138    0.856103885252437  0.0000
  O3     O3        0.641054586134432    0.721518776301855    0.859514959379335  0.0000
  O3     O3        0.834130225275818    0.772009005702411    0.859128119268785  0.0000
  O3     O3        0.667328264551375    0.190831760996771    0.842686174149925  0.0000
  O2     O2        0.157700288732604    0.757386111965383    0.115829430461004  0.0000
  O2     O2        0.353591786893024    0.236796869359023    0.118330212822852  0.0000
  O1     O1        0.618564690691375    0.425618515013994    0.029284145801364  0.0000
  O3     O3        0.878901193720574    0.509550021441413    0.029581207200242  0.0000
  O2     O2        0.369153873408909    0.479862445196970    0.937622318514934  0.0000
  O2     O2        0.136560148936353    0.500492811477005    0.948377557823272  0.0000
  O3     O3        0.765104894194731    0.280145073635782    0.057530193539238  0.0000
  O1     O1        0.735815323312090    0.678361787985103    0.071137247913166  0.0000
  O2     O2        0.246191369749124    0.263848441286314    0.937665699296194  0.0000
  O2     O2        0.258988273235159    0.716142108467690    0.927435959492006  0.0000
