data_c00700.vasp
_audit_creation_method             Generated by GULP
_audit_author_name                 Salvador R. G. Balestra
_symmetry_space_group_name_H-M     'P 1             '
_symmetry_Int_Tables_number        1

loop_
_symmetry_equiv_pos_site_id
_symmetry_equiv_pos_as_xyz
_cell_length_a                       17.2149
_cell_length_b                        7.6513
_cell_length_c                       10.2333
_cell_angle_alpha                   90.6802
_cell_angle_beta                    90.3907
_cell_angle_gamma                   90.1526

loop_
_atom_site_label
_atom_site_type_symbol
_atom_site_fract_x
_atom_site_fract_y
_atom_site_fract_z
_atom_site_charge
  Ge     Ge        0.052090000000021    0.000000000000000    0.372269999999958  0.0000
  Ge     Ge        0.841597678590348    0.313949166618301    0.698342396964243  0.0000
  Ge     Ge        0.155813185192070    0.670095842775256    0.954562074664748  0.0000
  Ge     Ge        0.341774775489369    0.662812975418659    0.946148781575577  0.0000
  Si     Si        0.451974267750325    0.999729632084603    0.360036954005425  0.0000
  Si     Si        0.949848478090732    0.011091701455927    0.631211861268603  0.0000
  Si     Si        0.546966727132978    0.005368264017580    0.624632928826986  0.0000
  Si     Si        0.555624120398490    0.994671730229084    0.111591008503609  0.0000
  Si     Si        0.939380716268857    0.001469763424713    0.125415835585039  0.0000
  Si     Si        0.440458131866132    0.975696261986956    0.870291012408891  0.0000
  Si     Si        0.050955966750565    0.975749544868866    0.885550168051221  0.0000
  Si     Si        0.162537114573992    0.296533698436135    0.281567325189043  0.0000
  Si     Si        0.344028027840970    0.696506674805125    0.259702733539846  0.0000
  Si     Si        0.654073601116825    0.704356484935809    0.714396289406678  0.0000
  Si     Si        0.834903901111565    0.722495706130109    0.714435982399978  0.0000
  Si     Si        0.659345721004130    0.301895183487169    0.699419519203863  0.0000
  Si     Si        0.166331193107640    0.704103155659410    0.263647713517070  0.0000
  Si     Si        0.342110382912661    0.292413324053057    0.275201624478921  0.0000
  Si     Si        0.662161554474470    0.291669990270490    0.006718763347472  0.0000
  Si     Si        0.834996789714845    0.704160874885212    0.019029601795312  0.0000
  Si     Si        0.337491151216747    0.268527500549231    0.973152909516965  0.0000
  Si     Si        0.155230035549416    0.272988044611943    0.982837660757888  0.0000
  Si     Si        0.654711426686076    0.689232096372824    0.017646976175155  0.0000
  Si     Si        0.841220585762267    0.303998603437974    0.010534190412808  0.0000
  O3     O3        0.107414001277145    0.189502857055118    0.375168202264075  0.0000
  O2     O2        0.401981939397021    0.823963103806966    0.338748168585887  0.0000
  O3     O3        0.905887125379885    0.192761416935296    0.607204105101784  0.0000
  O2     O2        0.599349298840072    0.831463611305819    0.632354449669332  0.0000
  O2     O2        0.882307007080189    0.863493634204075    0.632922646975135  0.0000
  O2     O2        0.601700533432513    0.176298321195829    0.617320329848522  0.0000
  O3     O3        0.110911378149118    0.821681037300577    0.350500668595270  0.0000
  O2     O2        0.396777342044175    0.170280430360296    0.362659188163718  0.0000
  O3     O3        0.014122716382257    0.972559438739091    0.525982711827224  0.0000
  O2     O2        0.493219563917267    0.988670537414236    0.498895714879345  0.0000
  O3     O3        0.972796986532977    0.009859799851728    0.269955571990533  0.0000
  O2     O2        0.518784929203425    0.018055550022862    0.252920325977336  0.0000
  O2     O2        0.990901990286068    0.021129567022442    0.772879238634892  0.0000
  O2     O2        0.491866316434779    0.027919605975077    0.748608447763464  0.0000
  O2     O2        0.613098621641275    0.156572059661349    0.089581654772959  0.0000
  O2     O2        0.881604964857190    0.835333736897513    0.113578575184482  0.0000
  O2     O2        0.368327298125324    0.110251037417230    0.884309249255145  0.0000
  O3     O3        0.091973484495115    0.791804504535300    0.862108283078929  0.0000
  O3     O3        0.404422473873697    0.785347161850979    0.853091721594170  0.0000
  O2     O2        0.118235822346041    0.123786077220011    0.891227519890697  0.0000
  O2     O2        0.602444934769163    0.811915169367297    0.109014411907854  0.0000
  O2     O2        0.894805073737587    0.182516833125353    0.099464396924411  0.0000
  O2     O2        0.489395859510439    0.992186165976462    0.002972088291400  0.0000
  O2     O2        0.009579059471950    0.974490000447288    0.025736144511740  0.0000
  O2     O2        0.143020984035460    0.501445955037683    0.284426899045465  0.0000
  O2     O2        0.366741969959041    0.495265973879888    0.289962248029402  0.0000
  O3     O3        0.863265088473989    0.531190564536464    0.675859199297492  0.0000
  O2     O2        0.634057630859988    0.503425284691520    0.679192327789389  0.0000
  O2     O2        0.252913126665147    0.267482752986771    0.319024535848620  0.0000
  O2     O2        0.256086880019683    0.732461375347188    0.307254144815537  0.0000
  O3     O3        0.746431842469776    0.276289135298710    0.651262787463832  0.0000
  O2     O2        0.743645481658718    0.743056832304832    0.681096442223327  0.0000
  O2     O2        0.145464932853776    0.220940758680513    0.134921781925832  0.0000
  O3     O3        0.348709134984949    0.732872373353516    0.107109975179761  0.0000
  O3     O3        0.852820559510916    0.257503970799578    0.860078369870088  0.0000
  O2     O2        0.639204395477094    0.741870780579288    0.867583108464555  0.0000
  O2     O2        0.848687370570354    0.756903882701976    0.869093244758065  0.0000
  O2     O2        0.654723662423741    0.252416274662129    0.852400541340207  0.0000
  O3     O3        0.157422524910210    0.752106187099124    0.112840891978282  0.0000
  O2     O2        0.352337728066184    0.228621515872736    0.125719691802643  0.0000
  O2     O2        0.631601617383213    0.487249411040094    0.038868291493786  0.0000
  O2     O2        0.864588893302599    0.506277680085159    0.039389986582475  0.0000
  O3     O3        0.375602191909667    0.450429837253317    0.934543751213732  0.0000
  O3     O3        0.118514889186281    0.459640317040087    0.953813230918536  0.0000
  O2     O2        0.751631938452022    0.273981371461601    0.049478644237552  0.0000
  O2     O2        0.744565287880405    0.718544605857618    0.054177798953241  0.0000
  O2     O2        0.245842774338107    0.295659836610289    0.949187529637591  0.0000
  O1     O1        0.247860887866927    0.683354001573162    0.893780394781653  0.0000
