data_c00722.vasp
_audit_creation_method             Generated by GULP
_audit_author_name                 Salvador R. G. Balestra
_symmetry_space_group_name_H-M     'P 1             '
_symmetry_Int_Tables_number        1

loop_
_symmetry_equiv_pos_site_id
_symmetry_equiv_pos_as_xyz
_cell_length_a                       17.2763
_cell_length_b                        7.6413
_cell_length_c                       10.1312
_cell_angle_alpha                   90.8044
_cell_angle_beta                    90.3892
_cell_angle_gamma                   90.4501

loop_
_atom_site_label
_atom_site_type_symbol
_atom_site_fract_x
_atom_site_fract_y
_atom_site_fract_z
_atom_site_charge
  Ge     Ge        0.052090000000021    0.000000000000000    0.372269999999958  0.0000
  Ge     Ge        0.660738264612617    0.703798450024781    0.723617408230564  0.0000
  Ge     Ge        0.843164581542134    0.680836164865476    0.044920314053176  0.0000
  Ge     Ge        0.149731688995034    0.669868717212149    0.976224010773327  0.0000
  Si     Si        0.448315094776823    0.014262744776117    0.382179401987398  0.0000
  Si     Si        0.945829011561388    0.992776067578029    0.628297878596866  0.0000
  Si     Si        0.545272268031252    0.992875176806855    0.642092519764636  0.0000
  Si     Si        0.554865415408970    0.998124794239655    0.138566340264532  0.0000
  Si     Si        0.945119714112740    0.995057595235290    0.116221528173403  0.0000
  Si     Si        0.441519304701237    0.991127942907621    0.897471496889421  0.0000
  Si     Si        0.052600456742763    0.977561853744022    0.871443723264889  0.0000
  Si     Si        0.168981174489567    0.286356430389656    0.295916614571229  0.0000
  Si     Si        0.334803862081403    0.716811149154438    0.279616627032805  0.0000
  Si     Si        0.833285298023988    0.284863849632901    0.726732355321316  0.0000
  Si     Si        0.841219271105245    0.689531051929397    0.727290336935539  0.0000
  Si     Si        0.654748764039088    0.293463922294026    0.722809383357812  0.0000
  Si     Si        0.157157624717296    0.692343247334050    0.288130008507695  0.0000
  Si     Si        0.347113875751135    0.317198644131409    0.288502133378212  0.0000
  Si     Si        0.653663650247314    0.303168621303092    0.029848556159869  0.0000
  Si     Si        0.342652995532546    0.301513422776388    0.980803031690824  0.0000
  Si     Si        0.330994224867702    0.696138714668451    0.968582877553855  0.0000
  Si     Si        0.163330495914237    0.262940406730340    0.990327316679301  0.0000
  Si     Si        0.662470744634962    0.704663466868690    0.038934531926905  0.0000
  Si     Si        0.831994355273444    0.279136419794456    0.035818190604427  0.0000
  O3     O3        0.119838181723595    0.167418213218186    0.391980015952679  0.0000
  O2     O2        0.387424816662008    0.857701847879474    0.355916565967072  0.0000
  O2     O2        0.886405885426085    0.152870244875809    0.644755730333195  0.0000
  O3     O3        0.600233694788466    0.827076485078797    0.628605214738940  0.0000
  O2     O2        0.903120933449718    0.807396369762679    0.649812663571709  0.0000
  O2     O2        0.600065654611894    0.164623756002505    0.637213436728551  0.0000
  O3     O3        0.100427438106379    0.803449789551055    0.379002616056856  0.0000
  O2     O2        0.405826275851637    0.200770286484928    0.372249539715158  0.0000
  O3     O3        0.977756414931978    0.000479737170989    0.482311614918547  0.0000
  O2     O2        0.480603989236885    0.998208607724805    0.529298896748799  0.0000
  O3     O3        0.008337471229193    0.041947901846085    0.223070416845910  0.0000
  O2     O2        0.520801151078136    0.002371237716720    0.284810342959180  0.0000
  O2     O2        0.020392508266009    0.013121322031876    0.725080086301562  0.0000
  O2     O2        0.501814818825732    0.981732154871586    0.780823153571016  0.0000
  O2     O2        0.599169666797860    0.181366492446821    0.116846333710554  0.0000
  O3     O3        0.908569378120751    0.803537343925248    0.136012364187872  0.0000
  O2     O2        0.395269474628047    0.173657454460238    0.893255176294423  0.0000
  O3     O3        0.085087094153464    0.782440237065273    0.880446397719606  0.0000
  O2     O2        0.381612593635979    0.829195592818529    0.883306183636988  0.0000
  O2     O2        0.123083959261369    0.111287182336097    0.903236513171630  0.0000
  O2     O2        0.611555288744958    0.833317905204267    0.128973726539096  0.0000
  O2     O2        0.873463582253299    0.130012547600761    0.119067726218340  0.0000
  O2     O2        0.485188594974413    0.972719068487459    0.035858419239499  0.0000
  O2     O2        0.982745901249699    0.006901811374433    0.971676710188364  0.0000
  O2     O2        0.140889729489945    0.486440264067467    0.305903019648938  0.0000
  O2     O2        0.365728609501043    0.522657654694059    0.312230231643671  0.0000
  O2     O2        0.861453568465879    0.484040031350588    0.704447175710288  0.0000
  O3     O3        0.630787161956871    0.490202401543885    0.699502800467970  0.0000
  O2     O2        0.259683984341113    0.276271373351190    0.333415764180848  0.0000
  O2     O2        0.246360556402717    0.736632765192408    0.326857954719540  0.0000
  O2     O2        0.744052577162391    0.263816394952309    0.680156210795140  0.0000
  O3     O3        0.755677854667616    0.725341745037751    0.673619454861342  0.0000
  O2     O2        0.157248112939024    0.216601323716763    0.145154054261570  0.0000
  O2     O2        0.335717070140429    0.748478800294555    0.123295612235176  0.0000
  O2     O2        0.839186738877963    0.238269467422077    0.880184672761728  0.0000
  O3     O3        0.658182628622668    0.764649076127612    0.888144400334928  0.0000
  O3     O3        0.847057001939552    0.736793973783652    0.881109656415792  0.0000
  O2     O2        0.645314702269398    0.245880908831206    0.877046449474888  0.0000
  O3     O3        0.140411895796065    0.743238947840412    0.137199232073344  0.0000
  O2     O2        0.357825094257971    0.266084983285563    0.135027513279588  0.0000
  O2     O2        0.629406950155644    0.505353906278180    0.047969683268275  0.0000
  O3     O3        0.869427071967910    0.466260511230350    0.068206690779174  0.0000
  O2     O2        0.364609311829853    0.500819964613680    0.946231811279995  0.0000
  O3     O3        0.126018245570858    0.449902149814336    0.964171980181586  0.0000
  O2     O2        0.742079495715656    0.280758141526283    0.076927688761952  0.0000
  O3     O3        0.749079265565907    0.711613673439686    0.094360212131927  0.0000
  O2     O2        0.252818260830208    0.268406466375814    0.947077820807478  0.0000
  O3     O3        0.242949147845537    0.702652807702639    0.921879863097639  0.0000
