data_c00748.vasp
_audit_creation_method             Generated by GULP
_audit_author_name                 Salvador R. G. Balestra
_symmetry_space_group_name_H-M     'P 1             '
_symmetry_Int_Tables_number        1

loop_
_symmetry_equiv_pos_site_id
_symmetry_equiv_pos_as_xyz
_cell_length_a                       17.0754
_cell_length_b                        7.6483
_cell_length_c                       10.3228
_cell_angle_alpha                   90.1885
_cell_angle_beta                    90.4299
_cell_angle_gamma                   89.6601

loop_
_atom_site_label
_atom_site_type_symbol
_atom_site_fract_x
_atom_site_fract_y
_atom_site_fract_z
_atom_site_charge
  Ge     Ge        0.052090000000021    0.000000000000000    0.372269999999958  0.0000
  Ge     Ge        0.668398732787768    0.283109134175808    0.020448149390569  0.0000
  Ge     Ge        0.335345586548112    0.269027388763099    0.969965944550451  0.0000
  Ge     Ge        0.172241155191720    0.717381245902042    0.974103620252037  0.0000
  Si     Si        0.451340527113706    0.976105985901976    0.364207462650623  0.0000
  Si     Si        0.949984202174127    0.994730510015550    0.635205382499320  0.0000
  Si     Si        0.552335617499204    0.984224661664606    0.621970701325520  0.0000
  Si     Si        0.557360314745774    0.998619030854381    0.114245849827542  0.0000
  Si     Si        0.946965589658022    0.991395180629292    0.117681854276410  0.0000
  Si     Si        0.448093638297868    0.983335301441094    0.873846464770724  0.0000
  Si     Si        0.057856057746788    0.000737906218609    0.884769876665833  0.0000
  Si     Si        0.157462331178558    0.306540911521133    0.273141765175239  0.0000
  Si     Si        0.350711697969778    0.667729972979364    0.279037059547373  0.0000
  Si     Si        0.843738538477423    0.300675572734922    0.710501003475766  0.0000
  Si     Si        0.657274904568534    0.682455208559672    0.710001053317164  0.0000
  Si     Si        0.837874312694867    0.700063289624372    0.709415079420669  0.0000
  Si     Si        0.664017103589938    0.277793467060471    0.712772107302578  0.0000
  Si     Si        0.172074092430906    0.711759174567463    0.278883009378038  0.0000
  Si     Si        0.337010993612658    0.266056161278881    0.277843157722929  0.0000
  Si     Si        0.836878274568587    0.703810004177853    0.011937199906395  0.0000
  Si     Si        0.356254649721867    0.667764381967082    0.974767571225295  0.0000
  Si     Si        0.150859921848484    0.316210463473283    0.972878543247508  0.0000
  Si     Si        0.654545474972731    0.686500282606225    0.010360650558238  0.0000
  Si     Si        0.851445318351210    0.307632913158241    0.015737221454477  0.0000
  O3     O3        0.097045929849255    0.200189369583592    0.357204829765046  0.0000
  O2     O2        0.409823495170096    0.786867588220285    0.362341576219350  0.0000
  O2     O2        0.900323116762995    0.175154798448478    0.628618296102028  0.0000
  O2     O2        0.601644268178053    0.803411420706834    0.621936386731719  0.0000
  O2     O2        0.889957552143581    0.831668732684201    0.626094525897482  0.0000
  O2     O2        0.610332509233561    0.149802284315986    0.626811677885678  0.0000
  O3     O3        0.120459344044856    0.833656800384192    0.369185520187398  0.0000
  O2     O2        0.386623429904007    0.130718539890107    0.365122067080914  0.0000
  O3     O3        0.011881082690008    0.988461346393090    0.523427805632225  0.0000
  O2     O2        0.503395390157657    0.994101333169100    0.491177862182940  0.0000
  O3     O3        0.976552329771399    0.977012734449893    0.262824782738003  0.0000
  O2     O2        0.506944752216606    0.993782939398395    0.241945979618695  0.0000
  O2     O2        0.996163142047908    0.983678322601121    0.770416438793058  0.0000
  O2     O2        0.492201834315021    0.988490748340019    0.739334946355823  0.0000
  O3     O3        0.621522497224570    0.147735509948388    0.125664149415299  0.0000
  O2     O2        0.878824478612432    0.848890280372327    0.098646455691989  0.0000
  O3     O3        0.375178640516257    0.114570997623157    0.869228882570112  0.0000
  O3     O3        0.129011374684380    0.865899052725503    0.871078943650321  0.0000
  O2     O2        0.418551142206141    0.787296205345794    0.900995574200778  0.0000
  O2     O2        0.090955928179798    0.198123616712632    0.889693417140673  0.0000
  O2     O2        0.600255858897605    0.812526075818145    0.094872018016214  0.0000
  O2     O2        0.914469898903369    0.187011745462360    0.089653405688942  0.0000
  O2     O2        0.503721973253694    0.051034299233205    0.990566180472552  0.0000
  O2     O2        0.017658651140966    0.947029337963777    0.020575381282363  0.0000
  O2     O2        0.140692177375939    0.513112870577827    0.285133153896029  0.0000
  O2     O2        0.369929337177198    0.462605406451080    0.299667228585960  0.0000
  O2     O2        0.865924559559277    0.501553467910663    0.681037514569785  0.0000
  O2     O2        0.635942831547299    0.478574264837159    0.692230670163913  0.0000
  O2     O2        0.246036862165073    0.261060852254061    0.319442419360137  0.0000
  O2     O2        0.262781041957020    0.711344497516627    0.324875776729254  0.0000
  O2     O2        0.754363799871800    0.262290224785990    0.668486581332764  0.0000
  O2     O2        0.746781798508318    0.717982716305444    0.669455248495995  0.0000
  O2     O2        0.147918383024094    0.251538462730536    0.122546414856060  0.0000
  O2     O2        0.358396343970079    0.714216142144599    0.127932919364022  0.0000
  O2     O2        0.853285846203932    0.263041433455434    0.862991460590940  0.0000
  O2     O2        0.644200933167732    0.737067152962759    0.859296563675377  0.0000
  O2     O2        0.847355388807864    0.747753754098118    0.860741348878374  0.0000
  O3     O3        0.657653408338665    0.220160301827148    0.860827942693042  0.0000
  O3     O3        0.166582996138984    0.784208316031438    0.133446990278558  0.0000
  O3     O3        0.343991797291427    0.207110950621535    0.129772202646953  0.0000
  O3     O3        0.629681521587882    0.490601185361935    0.036497104075670  0.0000
  O2     O2        0.873000815719005    0.511485599225596    0.040460807530813  0.0000
  O3     O3        0.380420621519732    0.468911188371815    0.951168921128613  0.0000
  O3     O3        0.126945512486910    0.516564915859164    0.958580357338647  0.0000
  O3     O3        0.765304203251087    0.273974316082073    0.066911526415690  0.0000
  O2     O2        0.745735876566124    0.707281147475233    0.049283270877136  0.0000
  O3     O3        0.238871391706067    0.290354584042868    0.924157373356921  0.0000
  O3     O3        0.268419566754627    0.701929841779053    0.925698606076632  0.0000
