data_c00736.vasp
_audit_creation_method             Generated by GULP
_audit_author_name                 Salvador R. G. Balestra
_symmetry_space_group_name_H-M     'P 1             '
_symmetry_Int_Tables_number        1

loop_
_symmetry_equiv_pos_site_id
_symmetry_equiv_pos_as_xyz
_cell_length_a                       17.1635
_cell_length_b                        7.6512
_cell_length_c                       10.2343
_cell_angle_alpha                   90.3150
_cell_angle_beta                    90.0889
_cell_angle_gamma                   90.7759

loop_
_atom_site_label
_atom_site_type_symbol
_atom_site_fract_x
_atom_site_fract_y
_atom_site_fract_z
_atom_site_charge
  Ge     Ge        0.052090000000021    0.000000000000000    0.372269999999958  0.0000
  Ge     Ge        0.658649275588177    0.707280708305357    0.721911972284779  0.0000
  Ge     Ge        0.330358458880041    0.740303050452149    0.982406636913134  0.0000
  Ge     Ge        0.169351416827459    0.285911729209278    0.987428936918838  0.0000
  Si     Si        0.449655298769619    0.028569048084363    0.382701466452360  0.0000
  Si     Si        0.950109758444969    0.002213360057161    0.633064127272758  0.0000
  Si     Si        0.548469565652036    0.003797759282985    0.640131085929427  0.0000
  Si     Si        0.554340663487404    0.003506808838367    0.134561412117098  0.0000
  Si     Si        0.945019558167279    0.021757080945480    0.112235691793870  0.0000
  Si     Si        0.443930270331606    0.026769824359046    0.893950335763842  0.0000
  Si     Si        0.057081428538968    0.996466882900519    0.876439134620463  0.0000
  Si     Si        0.171798826286579    0.287300079751296    0.295768797850724  0.0000
  Si     Si        0.334922459500623    0.736268130001359    0.293130315621337  0.0000
  Si     Si        0.840344107634047    0.299623619941461    0.734597666526407  0.0000
  Si     Si        0.841926346565992    0.700708236894283    0.725460462572718  0.0000
  Si     Si        0.660664935487866    0.297849953492101    0.727090039281594  0.0000
  Si     Si        0.156630833266604    0.691278530121411    0.294235085513300  0.0000
  Si     Si        0.349703780224953    0.335390937361563    0.287138149808078  0.0000
  Si     Si        0.655833242339052    0.312321283354913    0.032399674332752  0.0000
  Si     Si        0.840901718272843    0.708529745432833    0.032777987588649  0.0000
  Si     Si        0.352134025977625    0.343183434445361    0.980185516790693  0.0000
  Si     Si        0.147519631609933    0.687376548891264    0.990169484365614  0.0000
  Si     Si        0.661056075548938    0.715073755214194    0.032552317275880  0.0000
  Si     Si        0.835025423024781    0.311406343222019    0.040434960613233  0.0000
  O3     O3        0.122649071488474    0.162687912790439    0.389009649619128  0.0000
  O2     O2        0.385536745939431    0.872837742275177    0.378910337049947  0.0000
  O2     O2        0.895988301187592    0.168917945242216    0.658743208935235  0.0000
  O3     O3        0.595932503593369    0.826464674095559    0.628029777149011  0.0000
  O2     O2        0.901018850927520    0.822731854840249    0.645814043563256  0.0000
  O2     O2        0.611359707246860    0.161623082395214    0.640758213966793  0.0000
  O3     O3        0.097025542965294    0.799330652972696    0.380233112396561  0.0000
  O2     O2        0.410435802301812    0.216988916340352    0.364450847360398  0.0000
  O3     O3        0.981102777716829    0.016491339856534    0.487985539656905  0.0000
  O2     O2        0.488069155072314    0.027884613407412    0.524175817893530  0.0000
  O3     O3        0.006949539381809    0.029763497702048    0.224763362045498  0.0000
  O2     O2        0.517145227018448    0.999469185300314    0.277143723042085  0.0000
  O2     O2        0.024192313882214    0.998494044369717    0.729646425810272  0.0000
  O2     O2        0.500866982252388    0.004439035471205    0.774043469819289  0.0000
  O2     O2        0.598875219890741    0.188874679980396    0.115741141098702  0.0000
  O2     O2        0.897369583580490    0.837820287651812    0.113572457398204  0.0000
  O2     O2        0.413210624186980    0.224840707684996    0.901387047333336  0.0000
  O2     O2        0.086207621845338    0.802264312194598    0.910389088746922  0.0000
  O3     O3        0.371011185342055    0.895812550450475    0.882831709341676  0.0000
  O3     O3        0.127843021074447    0.132845868575783    0.885377252986112  0.0000
  O2     O2        0.613251239204273    0.842091423370091    0.127006044418356  0.0000
  O2     O2        0.884511673390413    0.180776464282411    0.128378639337708  0.0000
  O2     O2        0.487392453539848    0.973235894928334    0.027318082700889  0.0000
  O2     O2        0.989439254335747    0.052658866049177    0.975695421624082  0.0000
  O2     O2        0.140065517884446    0.484803066670850    0.306623721610652  0.0000
  O2     O2        0.368496920693779    0.540684654607859    0.311434474019936  0.0000
  O2     O2        0.864919116334069    0.498787305912289    0.701389714148792  0.0000
  O3     O3        0.634150155704649    0.491091772423653    0.696591971880760  0.0000
  O2     O2        0.262862180348664    0.288442665221518    0.336356700681282  0.0000
  O2     O2        0.244973646044747    0.737756515965781    0.339545400004301  0.0000
  O2     O2        0.751068934873462    0.269522651032821    0.690223020303281  0.0000
  O3     O3        0.755015898132412    0.735712999996969    0.678217493056705  0.0000
  O3     O3        0.163817337740668    0.218001981987063    0.147473792952836  0.0000
  O3     O3        0.338864287811997    0.797471928077691    0.144592992114525  0.0000
  O2     O2        0.846276629562475    0.264291339837847    0.888585181257027  0.0000
  O3     O3        0.648577058150225    0.768513060260685    0.883497339218638  0.0000
  O2     O2        0.849528977974019    0.745983464927026    0.879127870050212  0.0000
  O2     O2        0.647666976584757    0.258993980635541    0.880807512516274  0.0000
  O2     O2        0.146313353227994    0.746437305672673    0.142759742875297  0.0000
  O2     O2        0.355425104954984    0.293531476216328    0.133706237068727  0.0000
  O2     O2        0.632361522208843    0.514290477537189    0.052435071443516  0.0000
  O2     O2        0.864112005582338    0.510136019435632    0.067080286336300  0.0000
  O3     O3        0.375741454053226    0.542346332925543    0.957910778779960  0.0000
  O3     O3        0.124207313073319    0.485894711789313    0.974403052888963  0.0000
  O2     O2        0.744615092817942    0.287958819052851    0.079280957808811  0.0000
  O2     O2        0.751491553583577    0.737192333530512    0.072660196491370  0.0000
  O3     O3        0.264173474204644    0.308054224062187    0.934605967155342  0.0000
  O3     O3        0.234201713203622    0.719718400248891    0.937289803059637  0.0000
