data_c00752.vasp
_audit_creation_method             Generated by GULP
_audit_author_name                 Salvador R. G. Balestra
_symmetry_space_group_name_H-M     'P 1             '
_symmetry_Int_Tables_number        1

loop_
_symmetry_equiv_pos_site_id
_symmetry_equiv_pos_as_xyz
_cell_length_a                       17.1624
_cell_length_b                        7.6334
_cell_length_c                       10.2739
_cell_angle_alpha                   90.3530
_cell_angle_beta                    90.9433
_cell_angle_gamma                   89.9558

loop_
_atom_site_label
_atom_site_type_symbol
_atom_site_fract_x
_atom_site_fract_y
_atom_site_fract_z
_atom_site_charge
  Ge     Ge        0.052090000000021    0.000000000000000    0.372269999999958  0.0000
  Ge     Ge        0.664484947550480    0.305410942723910    0.040047920737088  0.0000
  Ge     Ge        0.334257619925793    0.288889755640801    0.973743523638188  0.0000
  Ge     Ge        0.851250458814808    0.333631196415708    0.045360138181893  0.0000
  Si     Si        0.450610392940941    0.987606221804038    0.376465264126143  0.0000
  Si     Si        0.949552782202231    0.001113769180479    0.632980442404449  0.0000
  Si     Si        0.552982819480095    0.989449097152207    0.634180076194159  0.0000
  Si     Si        0.553065827255835    0.015360439902998    0.124458285344948  0.0000
  Si     Si        0.946315226692514    0.011875332231667    0.116275879999394  0.0000
  Si     Si        0.443794066095331    0.002225022519670    0.879884450879941  0.0000
  Si     Si        0.056364198691646    0.008956621450131    0.879228799992854  0.0000
  Si     Si        0.157715279346990    0.309638439516597    0.284291669696378  0.0000
  Si     Si        0.349366553122950    0.681743934419188    0.290611193504770  0.0000
  Si     Si        0.844686514107289    0.304370265200421    0.733428616758838  0.0000
  Si     Si        0.658435166446246    0.689332039410374    0.715769730941562  0.0000
  Si     Si        0.836829917121703    0.707456405484657    0.722565450525813  0.0000
  Si     Si        0.665637579539894    0.283763333359497    0.730144103590856  0.0000
  Si     Si        0.169684886279822    0.712986484023953    0.292942619086589  0.0000
  Si     Si        0.337616405592266    0.277651946320205    0.283269185198520  0.0000
  Si     Si        0.832704886196662    0.731750792051226    0.026852745424518  0.0000
  Si     Si        0.166367967765481    0.722422099796231    0.991105343783866  0.0000
  Si     Si        0.348009719342618    0.692750801998200    0.988099332009402  0.0000
  Si     Si        0.151052172772862    0.322044353046644    0.981006949491775  0.0000
  Si     Si        0.652039225646610    0.704886907320909    0.016987343475650  0.0000
  O3     O3        0.099449345246190    0.199079082097653    0.368973890208034  0.0000
  O2     O2        0.406176762547037    0.800739028869124    0.380101019491920  0.0000
  O2     O2        0.902187482864052    0.181020282572621    0.652462863807881  0.0000
  O2     O2        0.601315978663592    0.807449448931025    0.626837198488749  0.0000
  O2     O2        0.892028680881561    0.834676590372162    0.642288982903886  0.0000
  O2     O2        0.611871738798131    0.153110331793859    0.644956894770643  0.0000
  O3     O3        0.122027019924636    0.837417806190572    0.386548484625844  0.0000
  O2     O2        0.388036546022295    0.145324534369994    0.371452046604533  0.0000
  O3     O3        0.984386448972933    0.000314196472707    0.491401017477990  0.0000
  O2     O2        0.502595416387122    0.010907602579337    0.504404732968631  0.0000
  O3     O3        0.000897090977796    0.951413492618768    0.231736112611364  0.0000
  O2     O2        0.506255433188207    0.992114548682357    0.254505480582294  0.0000
  O2     O2        0.022374715831452    0.987508855312198    0.733916250000259  0.0000
  O2     O2        0.494215243172431    0.985244786265103    0.752815908840970  0.0000
  O3     O3        0.612253265883692    0.173917696705170    0.141150895761911  0.0000
  O2     O2        0.867422391595705    0.894808949000338    0.107710274605154  0.0000
  O3     O3        0.378989106017280    0.151081831651763    0.865936797745078  0.0000
  O2     O2        0.123731403621235    0.864106491758339    0.900483370518850  0.0000
  O2     O2        0.401925509406059    0.817335768592098    0.904155501513804  0.0000
  O2     O2        0.090321262497294    0.205675996712808    0.896584157976589  0.0000
  O2     O2        0.600181318068779    0.837660601675841    0.097762327664160  0.0000
  O3     O3        0.918957168176661    0.211648127025323    0.131930369813460  0.0000
  O2     O2        0.496328525928353    0.062925339003421    0.003429891495145  0.0000
  O2     O2        0.988388064008389    0.976786097248391    0.979840347749286  0.0000
  O2     O2        0.140714658578043    0.513970986742296    0.308859972297509  0.0000
  O2     O2        0.367805916045236    0.476196280858480    0.309034364980134  0.0000
  O2     O2        0.865628976867417    0.507434822510656    0.705060530171586  0.0000
  O2     O2        0.637583746024116    0.483751094650116    0.703915294082688  0.0000
  O2     O2        0.247074487150917    0.263536448312000    0.322025207019171  0.0000
  O2     O2        0.261002633402798    0.722836119169509    0.330210180892731  0.0000
  O2     O2        0.755633739158527    0.265321226286082    0.688141867822100  0.0000
  O2     O2        0.747270065112736    0.722508376737052    0.672202789136761  0.0000
  O2     O2        0.143587836744644    0.263950860052784    0.131579899701002  0.0000
  O2     O2        0.362119622442412    0.734224286308212    0.140825918739021  0.0000
  O3     O3        0.855030878671518    0.265948869023711    0.884660165334151  0.0000
  O2     O2        0.646775687789548    0.752739942875783    0.864255844843905  0.0000
  O2     O2        0.840358554442217    0.764204096516800    0.872926501217744  0.0000
  O3     O3        0.659986680247338    0.233318018210802    0.880078132924517  0.0000
  O2     O2        0.157228252168218    0.774326950881985    0.142784669116719  0.0000
  O3     O3        0.346349668800848    0.224855375087945    0.133491489486739  0.0000
  O3     O3        0.622820111255377    0.511580443147978    0.042875895365035  0.0000
  O3     O3        0.875655636506994    0.552191414532894    0.062801188703925  0.0000
  O3     O3        0.371387057798789    0.496555138797290    0.955538359260650  0.0000
  O2     O2        0.130688144367567    0.528556956893719    0.965385531997987  0.0000
  O1     O1        0.758260166452518    0.304078153962400    0.096583741604008  0.0000
  O2     O2        0.742251398394106    0.714175418242553    0.063697112266291  0.0000
  O3     O3        0.236850418704408    0.287317647586481    0.932011797932602  0.0000
  O2     O2        0.256925821537745    0.723386658170270    0.953410186510727  0.0000
