data_c00738.vasp
_audit_creation_method             Generated by GULP
_audit_author_name                 Salvador R. G. Balestra
_symmetry_space_group_name_H-M     'P 1             '
_symmetry_Int_Tables_number        1

loop_
_symmetry_equiv_pos_site_id
_symmetry_equiv_pos_as_xyz
_cell_length_a                       17.2958
_cell_length_b                        7.6738
_cell_length_c                       10.1437
_cell_angle_alpha                   90.8453
_cell_angle_beta                    90.4248
_cell_angle_gamma                   90.4545

loop_
_atom_site_label
_atom_site_type_symbol
_atom_site_fract_x
_atom_site_fract_y
_atom_site_fract_z
_atom_site_charge
  Ge     Ge        0.052090000000021    0.000000000000000    0.372269999999958  0.0000
  Ge     Ge        0.655832551464221    0.695826632614545    0.715581556535422  0.0000
  Ge     Ge        0.333654896661672    0.707648873383306    0.972072322328588  0.0000
  Ge     Ge        0.837756434102972    0.320245098634762    0.046454451124500  0.0000
  Si     Si        0.449394429189715    0.014612353417578    0.381471917646167  0.0000
  Si     Si        0.948038325299524    0.003447202221783    0.631612264908263  0.0000
  Si     Si        0.549079996313750    0.998760695369113    0.639650980670112  0.0000
  Si     Si        0.551109478809414    0.003261044356268    0.130548190441049  0.0000
  Si     Si        0.941687811810205    0.018603839161132    0.117977133978852  0.0000
  Si     Si        0.439935616223141    0.003502257569578    0.886744059520526  0.0000
  Si     Si        0.051698423851464    0.000438404630368    0.879624785260738  0.0000
  Si     Si        0.163927978995980    0.300261366932011    0.293595218019860  0.0000
  Si     Si        0.341429690528083    0.713249530347557    0.286591569993085  0.0000
  Si     Si        0.841691572040115    0.303760429775324    0.731561119444440  0.0000
  Si     Si        0.837086772050242    0.706009699889544    0.723881750600163  0.0000
  Si     Si        0.664245041309923    0.289128396467494    0.722641800967414  0.0000
  Si     Si        0.163533004865482    0.702620154642827    0.296129414909248  0.0000
  Si     Si        0.342868752007381    0.310189287995720    0.283895361842801  0.0000
  Si     Si        0.657170006462239    0.305947982646937    0.032535212049278  0.0000
  Si     Si        0.832192581542971    0.720260968926066    0.033681976450698  0.0000
  Si     Si        0.338149063058208    0.305737369891760    0.976894226510004  0.0000
  Si     Si        0.152143776823853    0.698167888315752    0.987822403223011  0.0000
  Si     Si        0.157772091047245    0.298091028932306    0.988133708577073  0.0000
  Si     Si        0.653475336317097    0.704521848051893    0.028481655326916  0.0000
  O3     O3        0.111305933086332    0.182434351750063    0.383832761604528  0.0000
  O2     O2        0.396746178413248    0.840586989077774    0.372429567961708  0.0000
  O2     O2        0.898646727319956    0.178713172926807    0.650701399027650  0.0000
  O3     O3        0.591133412544438    0.815154496095315    0.625178342347354  0.0000
  O2     O2        0.895407201162381    0.831161159144738    0.647551469763241  0.0000
  O2     O2        0.616091461147297    0.146041453658238    0.639381573565352  0.0000
  O3     O3        0.110569443266807    0.819716969367024    0.387441650556786  0.0000
  O2     O2        0.397795986164115    0.187094254805082    0.367926234342757  0.0000
  O3     O3        0.979697731618316    0.005022355381572    0.485193789332922  0.0000
  O2     O2        0.487623083862902    0.025695633278078    0.524556047778281  0.0000
  O3     O3        0.007764346382121    0.982830533701391    0.220718956606819  0.0000
  O2     O2        0.518183530377217    0.010641321486498    0.276948931177033  0.0000
  O2     O2        0.022238202285782    0.998098215539609    0.729113977192499  0.0000
  O2     O2        0.503531827381926    0.017940132729753    0.775908485659097  0.0000
  O2     O2        0.599570967661207    0.179577913396814    0.108754738262427  0.0000
  O2     O2        0.876268461781939    0.867515616052396    0.118361773106559  0.0000
  O2     O2        0.385046893382863    0.172332693880528    0.885845439606847  0.0000
  O2     O2        0.092461852621336    0.816832310877509    0.908511900092126  0.0000
  O3     O3        0.386097798717170    0.835383517026747    0.867516183298867  0.0000
  O2     O2        0.110450159154364    0.163137087342569    0.896627715987206  0.0000
  O2     O2        0.603742937966400    0.831760144486706    0.120633249040351  0.0000
  O3     O3        0.897852723657238    0.198769916573839    0.144018141690616  0.0000
  O2     O2        0.480752838949294    0.986485924174233    0.028497500485129  0.0000
  O2     O2        0.978404855378005    0.026555335843798    0.972314714590498  0.0000
  O2     O2        0.141745241216022    0.501039525917928    0.317496554771251  0.0000
  O2     O2        0.365873474570036    0.512404300762900    0.308694901171562  0.0000
  O2     O2        0.864577496381408    0.505680448110822    0.706786876544879  0.0000
  O3     O3        0.632749727136221    0.478918176247579    0.692531710710640  0.0000
  O2     O2        0.254529625906560    0.274733152544115    0.325951299291821  0.0000
  O2     O2        0.253189122469233    0.737457341347447    0.333238327986636  0.0000
  O2     O2        0.753750192825863    0.273721374933856    0.680205444595031  0.0000
  O3     O3        0.750778822020983    0.728120476661509    0.669402691973226  0.0000
  O2     O2        0.147431152736839    0.245349544144785    0.140598396942914  0.0000
  O3     O3        0.348277050577314    0.764249895266964    0.135210261192860  0.0000
  O3     O3        0.847145442872357    0.257886121577525    0.883716585282568  0.0000
  O3     O3        0.643683981582993    0.759212801967184    0.878180395993444  0.0000
  O2     O2        0.837692613182119    0.757567094062559    0.878246753727131  0.0000
  O2     O2        0.659119019961319    0.252117013267144    0.878581587687200  0.0000
  O2     O2        0.150723437057969    0.750572049622174    0.142540958458051  0.0000
  O2     O2        0.353031940144506    0.262900458043730    0.130162712315393  0.0000
  O2     O2        0.626034528156836    0.504172812307013    0.046643888806786  0.0000
  O3     O3        0.866786052747497    0.534250170862564    0.066806345245567  0.0000
  O3     O3        0.365242543386106    0.498055291488997    0.944949703712620  0.0000
  O2     O2        0.127543472427998    0.494768092810371    0.967526177617425  0.0000
  O3     O3        0.742473977165261    0.292882578130410    0.092154078335309  0.0000
  O2     O2        0.742477280564618    0.721338127444980    0.074122754893711  0.0000
  O2     O2        0.246852349761309    0.287332470987388    0.946369563577635  0.0000
  O3     O3        0.237178745008646    0.727500303053427    0.932818404105815  0.0000
