data_c00717.vasp
_audit_creation_method             Generated by GULP
_audit_author_name                 Salvador R. G. Balestra
_symmetry_space_group_name_H-M     'P 1             '
_symmetry_Int_Tables_number        1

loop_
_symmetry_equiv_pos_site_id
_symmetry_equiv_pos_as_xyz
_cell_length_a                       17.2281
_cell_length_b                        7.6539
_cell_length_c                       10.2012
_cell_angle_alpha                   91.0844
_cell_angle_beta                    89.8066
_cell_angle_gamma                   89.9901

loop_
_atom_site_label
_atom_site_type_symbol
_atom_site_fract_x
_atom_site_fract_y
_atom_site_fract_z
_atom_site_charge
  Ge     Ge        0.052090000000021    0.000000000000000    0.372269999999958  0.0000
  Ge     Ge        0.668097803885300    0.717373121486354    0.699449137065074  0.0000
  Ge     Ge        0.654030634373135    0.322880227765237    0.014951263216043  0.0000
  Ge     Ge        0.338399539391308    0.710948247662773    0.958742774475662  0.0000
  Si     Si        0.450572888210534    0.011672057546669    0.366007180128556  0.0000
  Si     Si        0.954971545205615    0.995831027591807    0.640928545489821  0.0000
  Si     Si        0.554571531967256    0.007355635590053    0.617167997334158  0.0000
  Si     Si        0.555811854387561    0.012408319371151    0.117680253822432  0.0000
  Si     Si        0.942446494229315    0.008462108208544    0.126635335090539  0.0000
  Si     Si        0.449569062266661    0.998070482437306    0.870944651328366  0.0000
  Si     Si        0.058311756818162    0.992803111635500    0.894147342796180  0.0000
  Si     Si        0.170558173098831    0.289516877447997    0.272144301633691  0.0000
  Si     Si        0.338885887653689    0.719247159445137    0.270946647744309  0.0000
  Si     Si        0.839139143457186    0.290469643386208    0.712633875920564  0.0000
  Si     Si        0.849872406088513    0.689873851867810    0.705660301327945  0.0000
  Si     Si        0.660074926959056    0.306232935294088    0.704844003027159  0.0000
  Si     Si        0.161082784963809    0.692467303712083    0.271846755761343  0.0000
  Si     Si        0.348861883638539    0.314115679993009    0.267997837703184  0.0000
  Si     Si        0.845359224847531    0.697969655800979    0.013094203924983  0.0000
  Si     Si        0.350275592562482    0.308142504243620    0.962610758165711  0.0000
  Si     Si        0.157101892757412    0.680982250633661    0.964570716898141  0.0000
  Si     Si        0.170144926700093    0.283812747321339    0.967317437741232  0.0000
  Si     Si        0.666364111122942    0.730547259805811    0.009415829961027  0.0000
  Si     Si        0.835675277400761    0.302757704248141    0.020810654824272  0.0000
  O3     O3        0.118263346503977    0.167094201115795    0.358172308362673  0.0000
  O2     O2        0.390680245626248    0.850128386578294    0.359041665577261  0.0000
  O2     O2        0.891055200320584    0.150401491529079    0.633369439916176  0.0000
  O3     O3        0.610921262197804    0.842390476366229    0.600444628785993  0.0000
  O2     O2        0.911318361967396    0.808674988324195    0.628351507245394  0.0000
  O2     O2        0.607323974181911    0.181337652710916    0.612943529617769  0.0000
  O3     O3        0.099833590802139    0.803552060121181    0.353158076221741  0.0000
  O2     O2        0.406641728984558    0.196373120651067    0.351538917635457  0.0000
  O3     O3        0.018512997526920    0.013193323932722    0.530716958319432  0.0000
  O2     O2        0.489185995954747    0.012988149657475    0.507563602299103  0.0000
  O3     O3        0.971592865319902    0.015053745689225    0.274040661017157  0.0000
  O2     O2        0.518431475391032    0.987695898519108    0.259584151099025  0.0000
  O2     O2        0.996913048074311    0.013123056088229    0.780547713908966  0.0000
  O2     O2        0.511639254793777    0.994113629894434    0.756225936855172  0.0000
  O3     O3        0.588048361865051    0.207332119061142    0.105436276680567  0.0000
  O2     O2        0.898816791777627    0.825557531165800    0.099003478251634  0.0000
  O2     O2        0.404217338729529    0.182407896190624    0.874404344093663  0.0000
  O2     O2        0.096198977363401    0.799573714962187    0.886491989968951  0.0000
  O3     O3        0.387821204455081    0.844413408511852    0.854808276609380  0.0000
  O2     O2        0.124708419554741    0.140715677419796    0.880096763507571  0.0000
  O2     O2        0.626737324155421    0.875940069614315    0.103188124970678  0.0000
  O2     O2        0.885662552195993    0.171164922236101    0.105470260491138  0.0000
  O2     O2        0.492252561985851    0.964795246529894    0.008174822520442  0.0000
  O2     O2        0.017552338286150    0.023951237496566    0.034238686179604  0.0000
  O2     O2        0.143536964528021    0.489025252530309    0.294634684252808  0.0000
  O2     O2        0.367326069204011    0.519406106760973    0.290289963080135  0.0000
  O2     O2        0.870993073626831    0.485112011027375    0.684833948474291  0.0000
  O3     O3        0.636079489757033    0.504636836264442    0.685872601423517  0.0000
  O2     O2        0.260978133168976    0.272401230562816    0.311451042706892  0.0000
  O2     O2        0.249157264006529    0.737232440956528    0.315832552832488  0.0000
  O2     O2        0.750412445146195    0.277895336259821    0.663954680120408  0.0000
  O3     O3        0.764373729690898    0.726609185332062    0.653006479155821  0.0000
  O2     O2        0.161778007665648    0.234469455851408    0.119391392357513  0.0000
  O3     O3        0.346856728522707    0.773261638995463    0.121023300593453  0.0000
  O2     O2        0.840092224980908    0.250395295786860    0.867079879001596  0.0000
  O3     O3        0.660361738743577    0.789471968768739    0.860069787760362  0.0000
  O2     O2        0.854152375429546    0.740653101408979    0.859991902451362  0.0000
  O3     O3        0.648168279848383    0.251449206935753    0.854401851480396  0.0000
  O2     O2        0.153508676318364    0.735098607039798    0.118093165938744  0.0000
  O2     O2        0.361337918784367    0.263038673272453    0.115526545250672  0.0000
  O3     O3        0.628671389440984    0.541107885520689    0.025829741751920  0.0000
  O2     O2        0.870075037616451    0.498627038761196    0.041051580943528  0.0000
  O3     O3        0.375605492204537    0.503219373140986    0.936673821176413  0.0000
  O2     O2        0.135234387209858    0.476636443021103    0.943221843374785  0.0000
  O3     O3        0.747746129470631    0.294573938027092    0.069483630091102  0.0000
  O2     O2        0.755970861302671    0.721126677888537    0.053943107076152  0.0000
  O2     O2        0.260121239285098    0.280308388460564    0.924669013803662  0.0000
  O3     O3        0.242648064574979    0.714498835546661    0.911772223598470  0.0000
