data_c00721.vasp
_audit_creation_method             Generated by GULP
_audit_author_name                 Salvador R. G. Balestra
_symmetry_space_group_name_H-M     'P 1             '
_symmetry_Int_Tables_number        1

loop_
_symmetry_equiv_pos_site_id
_symmetry_equiv_pos_as_xyz
_cell_length_a                       17.2460
_cell_length_b                        7.6718
_cell_length_c                       10.1694
_cell_angle_alpha                   90.4497
_cell_angle_beta                    90.3045
_cell_angle_gamma                   90.3599

loop_
_atom_site_label
_atom_site_type_symbol
_atom_site_fract_x
_atom_site_fract_y
_atom_site_fract_z
_atom_site_charge
  Ge     Ge        0.052090000000021    0.000000000000000    0.372269999999958  0.0000
  Ge     Ge        0.654980072277331    0.669675473351323    0.708991607134667  0.0000
  Ge     Ge        0.828443868989644    0.701214897663083    0.037745268385581  0.0000
  Ge     Ge        0.331974955358610    0.291360154122149    0.967662065997080  0.0000
  Si     Si        0.449593170664208    0.998346674784133    0.375943096018305  0.0000
  Si     Si        0.947461471346905    0.990088083550795    0.631195040590752  0.0000
  Si     Si        0.548543615060524    0.972316466364238    0.633693748552836  0.0000
  Si     Si        0.550633040920873    0.990819752749521    0.123471079339978  0.0000
  Si     Si        0.939805184480006    0.994959519571764    0.118766972152495  0.0000
  Si     Si        0.439341021733403    0.997552670840218    0.881774244554724  0.0000
  Si     Si        0.049187626425510    0.990470747718816    0.881186176640618  0.0000
  Si     Si        0.162105162130431    0.301821541192527    0.294776151054175  0.0000
  Si     Si        0.344007511610475    0.694982943409209    0.281851313571462  0.0000
  Si     Si        0.841671132535437    0.290728972849524    0.729796859973139  0.0000
  Si     Si        0.834713864200831    0.693870036908417    0.722147958043945  0.0000
  Si     Si        0.662567579925907    0.264421784872415    0.720122789074177  0.0000
  Si     Si        0.164592677402505    0.703498969551088    0.293894762609645  0.0000
  Si     Si        0.340219416011988    0.292140956108795    0.281318031095549  0.0000
  Si     Si        0.659970662376252    0.282059053100923    0.026956761378024  0.0000
  Si     Si        0.156620050982272    0.700112140269821    0.989267703411535  0.0000
  Si     Si        0.337488257569103    0.694647892842648    0.976117702542588  0.0000
  Si     Si        0.150253116619176    0.299355745785694    0.987190637977067  0.0000
  Si     Si        0.648383034014249    0.679597511678781    0.025159376860878  0.0000
  Si     Si        0.839965366857747    0.300924283453536    0.035335920095591  0.0000
  O3     O3        0.108313302112711    0.186537820926070    0.385690452373586  0.0000
  O2     O2        0.399498568513894    0.820346567191077    0.367063839230173  0.0000
  O2     O2        0.898206698901486    0.166674433026487    0.648251254071806  0.0000
  O3     O3        0.590494606227580    0.789014488365429    0.617403767371584  0.0000
  O2     O2        0.894420332931663    0.818570746998033    0.646729168637494  0.0000
  O2     O2        0.616190253764446    0.118705555302061    0.637819543773096  0.0000
  O3     O3        0.113828511288065    0.824154078608999    0.385786110008049  0.0000
  O2     O2        0.395289562278629    0.167023275225093    0.365109188593839  0.0000
  O3     O3        0.979864713562990    0.990337063345002    0.485498618507774  0.0000
  O2     O2        0.488900750847110    0.009235497050431    0.517738038599385  0.0000
  O3     O3        0.008469931692060    0.999996108937932    0.220491544229015  0.0000
  O2     O2        0.517381137106147    0.998237422552310    0.269332273237841  0.0000
  O2     O2        0.020787549855883    0.987851550987744    0.730564307666935  0.0000
  O2     O2        0.501159023561056    0.975060638808650    0.768578915096084  0.0000
  O2     O2        0.615315466322865    0.142680722664303    0.115164802860510  0.0000
  O3     O3        0.880150068744171    0.837806753796076    0.139754504227060  0.0000
  O3     O3        0.384403882818331    0.161963460919387    0.862825491666017  0.0000
  O2     O2        0.108889110426536    0.831732159856981    0.899105489076145  0.0000
  O2     O2        0.384919684896307    0.826248409527204    0.885609053908172  0.0000
  O2     O2        0.088828787012919    0.177437749470788    0.910851403590675  0.0000
  O2     O2        0.586205847819523    0.799743860656331    0.099814357672269  0.0000
  O2     O2        0.891104992775603    0.174176733656248    0.124556042339847  0.0000
  O2     O2        0.482778535158789    0.029551207668005    0.020286396777042  0.0000
  O2     O2        0.975219746226383    0.961726438227074    0.973280384962134  0.0000
  O2     O2        0.140909204920716    0.503409366846222    0.317600369275609  0.0000
  O2     O2        0.366443968098880    0.493383968304534    0.303762888501709  0.0000
  O2     O2        0.863564656137256    0.493163178113374    0.708191627524691  0.0000
  O3     O3        0.630771997810506    0.453162390881272    0.686532727015275  0.0000
  O2     O2        0.252021727463002    0.268971738832803    0.330598395782749  0.0000
  O2     O2        0.255710839659739    0.729187472109778    0.324856032564682  0.0000
  O2     O2        0.753446720466691    0.255347102133203    0.682854095199944  0.0000
  O3     O3        0.749442870961087    0.706436579592819    0.660136761205220  0.0000
  O2     O2        0.149086891649217    0.250966451643127    0.141385246393141  0.0000
  O2     O2        0.354198605694565    0.741141144953481    0.128811441810679  0.0000
  O2     O2        0.850375399101860    0.245386286664246    0.883125743334401  0.0000
  O3     O3        0.647725400807225    0.727276975137366    0.872445614785987  0.0000
  O3     O3        0.831011519219104    0.751725336903431    0.873416192249826  0.0000
  O2     O2        0.652839619261578    0.225079552104303    0.874875867717186  0.0000
  O2     O2        0.147590224819681    0.754967581197676    0.141903284464495  0.0000
  O3     O3        0.345566562372372    0.237591673653229    0.130091478156861  0.0000
  O2     O2        0.624589235866725    0.475558671303602    0.044189072136544  0.0000
  O3     O3        0.866801350513009    0.496175372489339    0.060657946183252  0.0000
  O3     O3        0.363492907518460    0.501724359542200    0.942419482215978  0.0000
  O2     O2        0.126352296383994    0.501959274349489    0.967636148008651  0.0000
  O2     O2        0.749325635792577    0.283635151982282    0.072659155770770  0.0000
  O3     O3        0.732881231746515    0.710313946606483    0.085906030282748  0.0000
  O3     O3        0.234871821295036    0.269130127528858    0.929720869128914  0.0000
  O2     O2        0.245990549897018    0.712884818099921    0.946991186544369  0.0000
