data_c00788.vasp
_audit_creation_method             Generated by GULP
_audit_author_name                 Salvador R. G. Balestra
_symmetry_space_group_name_H-M     'P 1             '
_symmetry_Int_Tables_number        1

loop_
_symmetry_equiv_pos_site_id
_symmetry_equiv_pos_as_xyz
_cell_length_a                       16.8903
_cell_length_b                        7.5737
_cell_length_c                       10.4707
_cell_angle_alpha                   90.5219
_cell_angle_beta                    90.0243
_cell_angle_gamma                   89.9175

loop_
_atom_site_label
_atom_site_type_symbol
_atom_site_fract_x
_atom_site_fract_y
_atom_site_fract_z
_atom_site_charge
  Ge     Ge        0.556730000000016    0.000000000000000    0.122129999999970  0.0000
  Ge     Ge        0.945725811038483    0.014398276674909    0.123517794716778  0.0000
  Ge     Ge        0.152852229686311    0.339166707997023    0.294775638939255  0.0000
  Ge     Ge        0.333991006069253    0.281638949214373    0.984085629246813  0.0000
  Si     Si        0.050423622824157    0.027140132294112    0.379413776583080  0.0000
  Si     Si        0.457125648939393    0.007614229541947    0.379390481985956  0.0000
  Si     Si        0.957262929251551    0.009747893606730    0.638347347326441  0.0000
  Si     Si        0.554765097437817    0.991256669925454    0.635976531931285  0.0000
  Si     Si        0.445886447229908    0.002763293157577    0.881999462643186  0.0000
  Si     Si        0.060039362902488    0.006068336677614    0.888010647773270  0.0000
  Si     Si        0.354420246255712    0.701418390241326    0.278933770595864  0.0000
  Si     Si        0.855601706027413    0.321069214646904    0.724804787881796  0.0000
  Si     Si        0.655295457995089    0.681495521032514    0.717920741218750  0.0000
  Si     Si        0.836898104408016    0.726829846858381    0.725458805300571  0.0000
  Si     Si        0.673481981784831    0.276838941352770    0.719845391724030  0.0000
  Si     Si        0.171844379639927    0.749779609972605    0.281898478355762  0.0000
  Si     Si        0.337430206370675    0.292368899583920    0.288708286068155  0.0000
  Si     Si        0.674855119823045    0.277219181819876    0.016867092046558  0.0000
  Si     Si        0.828368875961858    0.735468536717718    0.022188155416750  0.0000
  Si     Si        0.172898008425757    0.727292131409587    0.984454614219305  0.0000
  Si     Si        0.357545960534025    0.684884618176856    0.984519076723837  0.0000
  Si     Si        0.148746169253934    0.329369442866374    0.989308553131849  0.0000
  Si     Si        0.646635526630922    0.674345267807283    0.014698841332851  0.0000
  Si     Si        0.857013953299808    0.338136436453495    0.020795821217667  0.0000
  O3     O3        0.082478654291614    0.225597689546545    0.379672842640803  0.0000
  O2     O2        0.414025520726137    0.818107587915752    0.363293548027577  0.0000
  O2     O2        0.916237264869116    0.203056146742171    0.641738788859459  0.0000
  O2     O2        0.596191157786352    0.798530228742433    0.632369917052056  0.0000
  O2     O2        0.889167349478216    0.860924063987577    0.643603263709934  0.0000
  O2     O2        0.623149554013751    0.140292428624210    0.634482588977212  0.0000
  O2     O2        0.128338233912435    0.903818087083724    0.360774881507735  0.0000
  O2     O2        0.393644795299609    0.166434368402547    0.371821090099363  0.0000
  O2     O2        0.006046992450969    0.984005981952673    0.509742536317632  0.0000
  O2     O2        0.497802163486712    0.013663686572361    0.516676683563788  0.0000
  O3     O3        0.988506767902165    0.985594796113451    0.268430860443656  0.0000
  O3     O3        0.524454174461988    0.030728371180810    0.274842857542634  0.0000
  O2     O2        0.019740257843498    0.987033465250972    0.751462975526451  0.0000
  O2     O2        0.501882240439651    0.015410613474458    0.761309432298532  0.0000
  O3     O3        0.639154070330013    0.132334640793417    0.106557115905952  0.0000
  O3     O3        0.863065891434704    0.880487040026826    0.115126780857753  0.0000
  O3     O3        0.372272645169330    0.134559267343022    0.875107978175032  0.0000
  O2     O2        0.135605804590921    0.873158182685424    0.892022070181571  0.0000
  O2     O2        0.413564155962098    0.802601986287844    0.895751062695974  0.0000
  O2     O2        0.086190455013772    0.209566204494667    0.910701879883518  0.0000
  O3     O3        0.583300257209767    0.782078710762637    0.095381456478651  0.0000
  O3     O3        0.917243546942029    0.232681358965696    0.107757170503500  0.0000
  O3     O3        0.489308892357792    0.069109091372713    0.010707781917785  0.0000
  O3     O3        0.003644737017007    0.941324525583268    0.999622626601815  0.0000
  O3     O3        0.135268118190638    0.561703692764158    0.315061527374178  0.0000
  O2     O2        0.369862617785683    0.493837678938434    0.298038886602226  0.0000
  O2     O2        0.869331056356246    0.528496110657771    0.700095587703573  0.0000
  O2     O2        0.641792275176558    0.474023708000674    0.690766168512859  0.0000
  O3     O3        0.248479692508111    0.290124721981163    0.340750657983648  0.0000
  O2     O2        0.264746452128320    0.749254147712611    0.318246449056540  0.0000
  O2     O2        0.766375882960765    0.266614356407196    0.685111065847419  0.0000
  O2     O2        0.745195805991757    0.735043471246648    0.682907396779400  0.0000
  O3     O3        0.139382714247856    0.279004495975986    0.136925728983182  0.0000
  O2     O2        0.370841894191354    0.750167517501152    0.131199246000940  0.0000
  O2     O2        0.872404432676753    0.280603974785170    0.873249349026445  0.0000
  O2     O2        0.636023706709981    0.724177826857962    0.865626868913269  0.0000
  O2     O2        0.841915563973178    0.784514149995179    0.873573490292155  0.0000
  O2     O2        0.663354487415906    0.225179384236638    0.867734870201913  0.0000
  O2     O2        0.163546800930512    0.790055201935036    0.131340264256287  0.0000
  O3     O3        0.338710468379558    0.224172061777537    0.143147658885012  0.0000
  O2     O2        0.632403203502039    0.466995319220357    0.037983798005692  0.0000
  O2     O2        0.870449994121409    0.545949164938867    0.043966527335126  0.0000
  O3     O3        0.380488302207041    0.483534223320172    0.966782965738400  0.0000
  O2     O2        0.129908970454732    0.537523066285497    0.968111193906347  0.0000
  O2     O2        0.766860373328119    0.289985853719581    0.053409144156187  0.0000
  O2     O2        0.735662571733831    0.724104911863778    0.054911724388170  0.0000
  O3     O3        0.236216539280062    0.292920613558082    0.940563637413317  0.0000
  O2     O2        0.265138023892438    0.708806877565786    0.949095244492179  0.0000
