data_c00758.vasp
_audit_creation_method             Generated by GULP
_audit_author_name                 Salvador R. G. Balestra
_symmetry_space_group_name_H-M     'P 1             '
_symmetry_Int_Tables_number        1

loop_
_symmetry_equiv_pos_site_id
_symmetry_equiv_pos_as_xyz
_cell_length_a                       17.1563
_cell_length_b                        7.6582
_cell_length_c                       10.2177
_cell_angle_alpha                   90.8319
_cell_angle_beta                    90.3329
_cell_angle_gamma                   89.6834

loop_
_atom_site_label
_atom_site_type_symbol
_atom_site_fract_x
_atom_site_fract_y
_atom_site_fract_z
_atom_site_charge
  Ge     Ge        0.052090000000021    0.000000000000000    0.372269999999958  0.0000
  Ge     Ge        0.645336095291322    0.340613477481970    0.031785335204042  0.0000
  Ge     Ge        0.331222263112379    0.714307560187494    0.971091663795217  0.0000
  Ge     Ge        0.831384242786198    0.321714605018549    0.045893082878133  0.0000
  Si     Si        0.451185190420779    0.005748182066677    0.373404450771038  0.0000
  Si     Si        0.947205035408623    0.002942569448926    0.631170913204091  0.0000
  Si     Si        0.551984326530148    0.014674548654019    0.632254612369092  0.0000
  Si     Si        0.549089661069623    0.023346315166769    0.120410678155521  0.0000
  Si     Si        0.940489510310010    0.023944369238757    0.118691780215069  0.0000
  Si     Si        0.439697362028131    0.001689865109440    0.876973075979847  0.0000
  Si     Si        0.050093161047758    0.004790708882291    0.881065651829553  0.0000
  Si     Si        0.166622590600381    0.292280046050547    0.288760383529377  0.0000
  Si     Si        0.339711701419922    0.713214030505019    0.282576077398420  0.0000
  Si     Si        0.834830885548672    0.300870400584184    0.732055289260383  0.0000
  Si     Si        0.662457261321565    0.719896214660963    0.711361040098800  0.0000
  Si     Si        0.842075042571792    0.704039803082253    0.721598045868052  0.0000
  Si     Si        0.656895787285050    0.318305941516395    0.717841643802419  0.0000
  Si     Si        0.160626343997362    0.694366145370547    0.294956190548215  0.0000
  Si     Si        0.347021039614301    0.309188166456692    0.276487346631675  0.0000
  Si     Si        0.840399160375170    0.716849317942454    0.024448789690335  0.0000
  Si     Si        0.341309194827395    0.310599604899459    0.973011088636460  0.0000
  Si     Si        0.148463087712976    0.695657317158982    0.988848379126685  0.0000
  Si     Si        0.159268124449093    0.295271665365797    0.985538876480738  0.0000
  Si     Si        0.658353653697205    0.737643117818847    0.015794616305582  0.0000
  O3     O3        0.117269941163134    0.171341671049114    0.380652875272956  0.0000
  O2     O2        0.393226240909617    0.841006457448328    0.370219044272380  0.0000
  O2     O2        0.890912912414330    0.168560371096534    0.654432878644960  0.0000
  O2     O2        0.610350671582746    0.848248823429342    0.623346134825482  0.0000
  O2     O2        0.899423119719792    0.821590923679191    0.636775267189067  0.0000
  O2     O2        0.601447588719929    0.192841332254599    0.630910236241232  0.0000
  O3     O3        0.105664177484969    0.809334824061612    0.386232648479652  0.0000
  O2     O2        0.404027988515548    0.187356810288393    0.359773637886793  0.0000
  O3     O3        0.981380674140436    0.019177260338252    0.487948028387615  0.0000
  O2     O2        0.493675739080576    0.009795114628159    0.511537091635012  0.0000
  O3     O3        0.006978641979975    0.996126089751105    0.222413844458330  0.0000
  O2     O2        0.516464906643561    0.984389291860324    0.262933790408102  0.0000
  O2     O2        0.019849355300727    0.001123603406614    0.732191461019941  0.0000
  O2     O2        0.500705249923996    0.006553047396056    0.761733846086691  0.0000
  O3     O3        0.575061690872304    0.222106611632779    0.110440197544557  0.0000
  O2     O2        0.882168941924365    0.859114094330581    0.115597306048212  0.0000
  O2     O2        0.390805957739213    0.182310037363242    0.880205436056434  0.0000
  O2     O2        0.086026318650069    0.815168093893313    0.913715919252307  0.0000
  O3     O3        0.379563287804261    0.844696267535952    0.863688447496916  0.0000
  O2     O2        0.114041674228434    0.157842822585697    0.893755265306571  0.0000
  O2     O2        0.625459518550201    0.901858855315021    0.097456849878039  0.0000
  O3     O3        0.888342311405445    0.193550784130981    0.145368293482073  0.0000
  O2     O2        0.484427856370343    0.969801679572753    0.013510730285670  0.0000
  O2     O2        0.978494655167069    0.049216190002179    0.975586679135874  0.0000
  O2     O2        0.140987929223131    0.491868141104453    0.315199281581587  0.0000
  O2     O2        0.367766750544317    0.512536407106256    0.300036213270449  0.0000
  O2     O2        0.863847706925941    0.499297040356975    0.707512223803591  0.0000
  O2     O2        0.634861336236605    0.520404338807837    0.689684344433812  0.0000
  O2     O2        0.258539051800183    0.271098579889415    0.318286699199387  0.0000
  O2     O2        0.250744730967112    0.731289353865797    0.331002815867723  0.0000
  O2     O2        0.746509564683460    0.282469135585256    0.677176466522449  0.0000
  O2     O2        0.753332738047015    0.736759331353400    0.673695384554108  0.0000
  O2     O2        0.149816939390798    0.240250787804963    0.136641692069099  0.0000
  O3     O3        0.345040781519969    0.770682195084250    0.133245135186751  0.0000
  O3     O3        0.833669167027434    0.256131190829070    0.883413854217851  0.0000
  O2     O2        0.651092514543696    0.778387229690915    0.861837920542209  0.0000
  O2     O2        0.852443573286868    0.764246174855781    0.872406071510533  0.0000
  O3     O3        0.645397407652075    0.277249111112960    0.868960748381877  0.0000
  O2     O2        0.146895252308897    0.744300404983315    0.143051619101827  0.0000
  O2     O2        0.358427603439195    0.261088278090967    0.123814459658458  0.0000
  O3     O3        0.616269365675612    0.557725243543955    0.046068252550024  0.0000
  O3     O3        0.872218226677875    0.527442734217541    0.056949170434115  0.0000
  O3     O3        0.366043506410223    0.505185043804924    0.944999150012736  0.0000
  O2     O2        0.126149600177237    0.491458551413817    0.966154742613085  0.0000
  O1     O1        0.736572365477160    0.311370313053035    0.095611080333718  0.0000
  O2     O2        0.748435533862767    0.710021064795776    0.054936445399296  0.0000
  O2     O2        0.249365420636467    0.289148166244594    0.944355690734346  0.0000
  O3     O3        0.233481361032413    0.729154200460488    0.933285065098295  0.0000
