data_c00786.vasp
_audit_creation_method             Generated by GULP
_audit_author_name                 Salvador R. G. Balestra
_symmetry_space_group_name_H-M     'P 1             '
_symmetry_Int_Tables_number        1

loop_
_symmetry_equiv_pos_site_id
_symmetry_equiv_pos_as_xyz
_cell_length_a                       16.9403
_cell_length_b                        7.5713
_cell_length_c                       10.3985
_cell_angle_alpha                   90.9248
_cell_angle_beta                    90.3413
_cell_angle_gamma                   89.1888

loop_
_atom_site_label
_atom_site_type_symbol
_atom_site_fract_x
_atom_site_fract_y
_atom_site_fract_z
_atom_site_charge
  Ge     Ge        0.556730000000016    0.000000000000000    0.122129999999970  0.0000
  Ge     Ge        0.948364905550876    0.974241100062506    0.105229343655000  0.0000
  Ge     Ge        0.167808570874718    0.248441711108768    0.278322454501571  0.0000
  Ge     Ge        0.643778237564066    0.329859441622195    0.022939033014925  0.0000
  Si     Si        0.049477822985295    0.973381246955533    0.368006262916897  0.0000
  Si     Si        0.454764165078130    0.977336435902212    0.370801475171658  0.0000
  Si     Si        0.950734966391890    0.950571337222018    0.621428760932136  0.0000
  Si     Si        0.549786505457471    0.978655769006385    0.631387970673497  0.0000
  Si     Si        0.445030603622041    0.965152015013992    0.880518664825507  0.0000
  Si     Si        0.058649349915193    0.968546799485821    0.863540767752089  0.0000
  Si     Si        0.335809789597963    0.695414572237595    0.272125259553923  0.0000
  Si     Si        0.831134984074517    0.241926900531138    0.722133180663920  0.0000
  Si     Si        0.670143266272218    0.695082856542077    0.711119469972900  0.0000
  Si     Si        0.851211158054440    0.646589919605174    0.714082504719022  0.0000
  Si     Si        0.650852338905375    0.289414906323730    0.717935506801177  0.0000
  Si     Si        0.153246835530232    0.663661521730260    0.276164715510973  0.0000
  Si     Si        0.353639790601355    0.287905719123769    0.274187415729796  0.0000
  Si     Si        0.856772009610214    0.649152573026323    0.011934483403313  0.0000
  Si     Si        0.351379385233702    0.287079141098755    0.974409119845800  0.0000
  Si     Si        0.150414490527982    0.652243474425966    0.976816907034019  0.0000
  Si     Si        0.332816773590854    0.686955663615934    0.971864409672139  0.0000
  Si     Si        0.168093669814144    0.247740388102573    0.973070485382335  0.0000
  Si     Si        0.675273291245580    0.727856524004385    0.011131265717600  0.0000
  Si     Si        0.827437709813323    0.256753535901529    0.022674667211452  0.0000
  O3     O3        0.116085423190989    0.120758060609615    0.382223678482527  0.0000
  O2     O2        0.385702576856278    0.833341158744599    0.356050226157048  0.0000
  O2     O2        0.883748515771105    0.100299382812441    0.643943308536268  0.0000
  O2     O2        0.618435906167759    0.827847208143758    0.624246370293495  0.0000
  O2     O2        0.911447135032633    0.757625801634595    0.628790546000187  0.0000
  O2     O2        0.590101428119706    0.170680798683880    0.634538391096373  0.0000
  O2     O2        0.094059439857365    0.783642510054715    0.360568113289433  0.0000
  O2     O2        0.418718735947355    0.174402950322807    0.351178152188606  0.0000
  O2     O2        0.985818669107558    0.973103966592279    0.480467356641686  0.0000
  O2     O2        0.492315693264236    0.963648771571593    0.510567420198826  0.0000
  O3     O3        0.004810967975042    0.018361965805616    0.236657168695257  0.0000
  O3     O3        0.523247772917802    0.939998245876331    0.269546836598839  0.0000
  O2     O2        0.023268134681041    0.969551894782138    0.720594332150968  0.0000
  O2     O2        0.495292078282778    0.944970909451886    0.753104647957959  0.0000
  O1     O1        0.575929368358328    0.219792268657166    0.110908181622934  0.0000
  O3     O3        0.916827124536474    0.758200080794895    0.098632524552589  0.0000
  O2     O2        0.409610149828086    0.165279409522763    0.889215231831844  0.0000
  O2     O2        0.090930525198983    0.770603344295431    0.893201164046226  0.0000
  O2     O2        0.373783504924826    0.824328674210681    0.878989244041355  0.0000
  O2     O2        0.128970225264673    0.111088608294530    0.872851381723421  0.0000
  O3     O3        0.646759800985218    0.893912179337160    0.092687029462784  0.0000
  O3     O3        0.866982254210551    0.113195927165333    0.111659367454660  0.0000
  O3     O3        0.495610742298223    0.917816500971141    0.004073883722803  0.0000
  O3     O3        0.994717506112439    0.031039004133093    0.965644742270384  0.0000
  O3     O3        0.137497637936474    0.463546823874374    0.305726003704558  0.0000
  O2     O2        0.365286092015557    0.496444606650638    0.301732101260771  0.0000
  O2     O2        0.865324175911057    0.436596541824916    0.695035964036616  0.0000
  O2     O2        0.636716271825861    0.497582825904403    0.692047915102928  0.0000
  O3     O3        0.267193389833196    0.230992427579550    0.313215779151390  0.0000
  O2     O2        0.243754097933937    0.715098133008063    0.308618812544974  0.0000
  O2     O2        0.740055017807221    0.235031037606670    0.675846967467748  0.0000
  O2     O2        0.762024964843186    0.697255079671328    0.670737203425107  0.0000
  O3     O3        0.153624580304571    0.189461676796627    0.118491022808384  0.0000
  O2     O2        0.346018990937568    0.738287251359866    0.121751113038019  0.0000
  O2     O2        0.831369719625293    0.196054208837052    0.872404134810286  0.0000
  O2     O2        0.664826165920658    0.760143336316155    0.858477519482167  0.0000
  O2     O2        0.868414946663442    0.700718065236715    0.862276158547608  0.0000
  O3     O3        0.634312355858313    0.253116577487802    0.865653451045302  0.0000
  O2     O2        0.135758789489193    0.703635649994228    0.125908266396026  0.0000
  O2     O2        0.369024082833170    0.244877017992642    0.123440168688856  0.0000
  O3     O3        0.626271274418639    0.552957302498400    0.041849259745102  0.0000
  O2     O2        0.873848020952004    0.442721505496687    0.034205060826131  0.0000
  O2     O2        0.368830755975649    0.490928511347940    0.944954872250024  0.0000
  O2     O2        0.132599072234577    0.445627385034560    0.953431311624960  0.0000
  O3     O3        0.739074446511856    0.283134210887729    0.070254868393195  0.0000
  O2     O2        0.766415681564766    0.692594534596441    0.047573226980173  0.0000
  O2     O2        0.260933786447114    0.245631980906296    0.943287148671488  0.0000
  O2     O2        0.240121149008933    0.691465820384667    0.938949665676883  0.0000
