data_c00769.vasp
_audit_creation_method             Generated by GULP
_audit_author_name                 Salvador R. G. Balestra
_symmetry_space_group_name_H-M     'P 1             '
_symmetry_Int_Tables_number        1

loop_
_symmetry_equiv_pos_site_id
_symmetry_equiv_pos_as_xyz
_cell_length_a                       17.0843
_cell_length_b                        7.6063
_cell_length_c                       10.3229
_cell_angle_alpha                   89.8888
_cell_angle_beta                    90.2875
_cell_angle_gamma                   90.9590

loop_
_atom_site_label
_atom_site_type_symbol
_atom_site_fract_x
_atom_site_fract_y
_atom_site_fract_z
_atom_site_charge
  Ge     Ge        0.052090000000021    0.000000000000000    0.372269999999958  0.0000
  Ge     Ge        0.355639663929804    0.352194831122369    0.964432158883129  0.0000
  Ge     Ge        0.144416866143561    0.689135909848302    0.975943718414982  0.0000
  Ge     Ge        0.168588995059310    0.279415907773723    0.969879217022434  0.0000
  Si     Si        0.452421198106423    0.026213462798175    0.363499891731719  0.0000
  Si     Si        0.944899229425347    0.015268892579486    0.629468644853151  0.0000
  Si     Si        0.546138231895981    0.009491065896756    0.628161349412587  0.0000
  Si     Si        0.558431520403246    0.012458154385532    0.116205861952278  0.0000
  Si     Si        0.946030211601502    0.021078664289968    0.117158663034506  0.0000
  Si     Si        0.445026888438954    0.029929868393122    0.878091183251831  0.0000
  Si     Si        0.051782596504893    0.000591010409809    0.877179314614013  0.0000
  Si     Si        0.174461250057730    0.285170163479406    0.273863346165547  0.0000
  Si     Si        0.333444338615249    0.736130377354915    0.275556986253209  0.0000
  Si     Si        0.832185756583501    0.303128473949732    0.710437821092442  0.0000
  Si     Si        0.660411807491522    0.723137599877645    0.714772363074740  0.0000
  Si     Si        0.840819767199108    0.706261443586714    0.707394670282877  0.0000
  Si     Si        0.651520244442655    0.318687848702136    0.717240087882621  0.0000
  Si     Si        0.154951791962072    0.695266807835758    0.277727633208073  0.0000
  Si     Si        0.353372089210260    0.335174781376685    0.274058723639134  0.0000
  Si     Si        0.655232754898011    0.325902968668187    0.018540283195525  0.0000
  Si     Si        0.847355900600048    0.707711066432747    0.009619462458805  0.0000
  Si     Si        0.328901333173681    0.748374315938679    0.970178374296245  0.0000
  Si     Si        0.666668720624088    0.726730674920566    0.016815312896209  0.0000
  Si     Si        0.835990084252144    0.307416030477889    0.013027955546624  0.0000
  O3     O3        0.122903790832595    0.163983665618398    0.366387763910331  0.0000
  O2     O2        0.384366470329965    0.877768101872042    0.354971715366459  0.0000
  O2     O2        0.882358005263211    0.172866384942478    0.623117488801461  0.0000
  O2     O2        0.608071139387397    0.851706548582227    0.628993754202027  0.0000
  O2     O2        0.897062638433910    0.829592515731066    0.620946556008670  0.0000
  O2     O2        0.592419641032187    0.195759020294517    0.636286823058949  0.0000
  O3     O3        0.095278289524492    0.795951440595235    0.368952865264125  0.0000
  O2     O2        0.414184799769697    0.218686676665067    0.356470110244284  0.0000
  O3     O3        0.007895580482357    0.026995607009748    0.519592319993668  0.0000
  O2     O2        0.496625065933384    0.004582654389967    0.498069676281812  0.0000
  O3     O3        0.978163944228241    0.025294966829381    0.260701247981866  0.0000
  O2     O2        0.515645066350244    0.997681589719000    0.251994593711093  0.0000
  O2     O2        0.990120114485464    0.034121481172054    0.765197372393039  0.0000
  O2     O2        0.486570526591050    0.980471639313618    0.745523998895837  0.0000
  O2     O2        0.599627154292143    0.204728750139250    0.106846016160433  0.0000
  O2     O2        0.906681572921478    0.829545591516093    0.090402097725209  0.0000
  O3     O3        0.422870228222374    0.232616100155090    0.878632545424539  0.0000
  O3     O3        0.078722301726465    0.800888691091665    0.880438004685389  0.0000
  O2     O2        0.364980511741569    0.914900281812297    0.893298682641966  0.0000
  O3     O3        0.128203713952814    0.123917543172567    0.867645495728688  0.0000
  O2     O2        0.623088740079720    0.861134385655369    0.109329235871295  0.0000
  O2     O2        0.882286344298238    0.173267832226856    0.102258957880943  0.0000
  O2     O2        0.498705224469137    0.978549987906184    0.999597363112785  0.0000
  O2     O2        0.015658181717677    0.058367237235331    0.016268218231242  0.0000
  O2     O2        0.141993653126167    0.484599524969940    0.273969666876928  0.0000
  O2     O2        0.369854087874878    0.543090430533406    0.297167701924804  0.0000
  O2     O2        0.858768665156274    0.503025069073612    0.677866910253240  0.0000
  O2     O2        0.632958234035585    0.522163844084605    0.689105943922456  0.0000
  O2     O2        0.265063368608357    0.288775085500695    0.319695833674356  0.0000
  O2     O2        0.243913017217691    0.738996356417390    0.325185522174785  0.0000
  O2     O2        0.740432875048625    0.277070223487840    0.677424386176372  0.0000
  O2     O2        0.750791807460460    0.747081853505420    0.673691023322902  0.0000
  O3     O3        0.170390711279419    0.209170421722935    0.129570836830436  0.0000
  O2     O2        0.331506253666625    0.785024902725522    0.124435707031548  0.0000
  O2     O2        0.845922180533560    0.261115742599291    0.861911832902651  0.0000
  O2     O2        0.652039580664320    0.772238526741545    0.866045967732742  0.0000
  O2     O2        0.857962500667576    0.748926871401768    0.857797160997106  0.0000
  O2     O2        0.638805339440818    0.276865568873046    0.868896342292884  0.0000
  O3     O3        0.138800226984798    0.766317478453349    0.133535039527103  0.0000
  O3     O3        0.364340760179482    0.288896116857460    0.124927734632442  0.0000
  O2     O2        0.635428990132962    0.528880515014493    0.045403878961125  0.0000
  O2     O2        0.867997273333865    0.505301369490744    0.039331545007613  0.0000
  O3     O3        0.377038130626027    0.573118701664380    0.943339397044844  0.0000
  O1     O1        0.119524735390496    0.473667695600093    0.961024671237725  0.0000
  O2     O2        0.745373842296894    0.291427842359310    0.052493419408395  0.0000
  O2     O2        0.758435797379747    0.743933233114762    0.050150529563445  0.0000
  O1     O1        0.261905345805267    0.314067265376053    0.915431303562399  0.0000
  O3     O3        0.240141476159472    0.720980248859127    0.925387609494147  0.0000
