data_c00724.vasp
_audit_creation_method             Generated by GULP
_audit_author_name                 Salvador R. G. Balestra
_symmetry_space_group_name_H-M     'P 1             '
_symmetry_Int_Tables_number        1

loop_
_symmetry_equiv_pos_site_id
_symmetry_equiv_pos_as_xyz
_cell_length_a                       17.2222
_cell_length_b                        7.6419
_cell_length_c                       10.1892
_cell_angle_alpha                   89.9949
_cell_angle_beta                    90.5312
_cell_angle_gamma                   90.0391

loop_
_atom_site_label
_atom_site_type_symbol
_atom_site_fract_x
_atom_site_fract_y
_atom_site_fract_z
_atom_site_charge
  Ge     Ge        0.052090000000021    0.000000000000000    0.372269999999958  0.0000
  Ge     Ge        0.649844133844316    0.667526766286073    0.713368026346229  0.0000
  Ge     Ge        0.828974623408253    0.699254978866597    0.033027286003690  0.0000
  Ge     Ge        0.146534308579974    0.312743295350483    0.982416562316022  0.0000
  Si     Si        0.450044270753609    0.990045048581326    0.374860778601793  0.0000
  Si     Si        0.944432094605879    0.986883907405798    0.625990437139572  0.0000
  Si     Si        0.543610233451087    0.976917087403251    0.638339062837436  0.0000
  Si     Si        0.554139956779526    0.983092862808640    0.128493175169255  0.0000
  Si     Si        0.942186891956472    0.988894532591805    0.115905929406665  0.0000
  Si     Si        0.438579399421273    0.999285789021330    0.891284872370318  0.0000
  Si     Si        0.048244012919360    0.000619483302222    0.874275274338526  0.0000
  Si     Si        0.158108464907684    0.304143562641535    0.292973423458927  0.0000
  Si     Si        0.346846213040080    0.684664180098134    0.284224386627970  0.0000
  Si     Si        0.840604121012039    0.289720666553312    0.726737788118772  0.0000
  Si     Si        0.830043612362680    0.695119254154297    0.718694251550088  0.0000
  Si     Si        0.661538659929114    0.259822164180983    0.722044557148923  0.0000
  Si     Si        0.167787150309857    0.710285381684556    0.293196084729256  0.0000
  Si     Si        0.335793373248588    0.284425784928445    0.277556236328590  0.0000
  Si     Si        0.662938887349301    0.272412961421743    0.028410835553173  0.0000
  Si     Si        0.328177083043296    0.293038141308779    0.968318319397067  0.0000
  Si     Si        0.160145353418472    0.720880188131777    0.989255827100531  0.0000
  Si     Si        0.340334501872263    0.688832707766799    0.978939861489396  0.0000
  Si     Si        0.648722043739718    0.670212171136738    0.028804459890808  0.0000
  Si     Si        0.843049372826089    0.297794362168574    0.031224619603097  0.0000
  O3     O3        0.103211546511581    0.193920885522063    0.387007784376915  0.0000
  O2     O2        0.405144566580771    0.804791401134335    0.368122838418780  0.0000
  O2     O2        0.897987584617249    0.168742898090936    0.643873440597253  0.0000
  O3     O3        0.581047558291603    0.786522031705114    0.628814885196355  0.0000
  O2     O2        0.887994631694498    0.820488247488109    0.639843922828646  0.0000
  O2     O2        0.615558298227940    0.113036853835176    0.640436458150700  0.0000
  O3     O3        0.118209128459894    0.830067723315036    0.387622121682408  0.0000
  O2     O2        0.390378986365719    0.148082053555215    0.351872069180315  0.0000
  O3     O3        0.978049459790482    0.985246144306660    0.481650776949896  0.0000
  O2     O2        0.486386664988471    0.014207755983761    0.517891651592503  0.0000
  O3     O3        0.009973148833324    0.985507541996887    0.219439312412969  0.0000
  O2     O2        0.520299795083573    0.994959336416648    0.273310407334931  0.0000
  O2     O2        0.017491288978900    0.974690434258113    0.726137326884019  0.0000
  O2     O2        0.494295076219131    0.003008483950660    0.768831985843812  0.0000
  O2     O2        0.621092030184651    0.129674625359053    0.118153995423879  0.0000
  O3     O3        0.879948302106969    0.836407580990160    0.134640953802420  0.0000
  O2     O2        0.378085256031303    0.159353630815675    0.882144894374894  0.0000
  O2     O2        0.119649067185704    0.868341410144948    0.900644633349200  0.0000
  O2     O2        0.392529172613199    0.815270056080452    0.890725681503831  0.0000
  O3     O3        0.079106202246815    0.196652901689433    0.892695566636943  0.0000
  O2     O2        0.587645360789913    0.788693612475542    0.107620233334182  0.0000
  O2     O2        0.896647028492450    0.173897741924255    0.120732855057126  0.0000
  O2     O2        0.487170890614840    0.025834538591293    0.024069880284660  0.0000
  O2     O2        0.978262746989371    0.955522151394082    0.971672682782133  0.0000
  O2     O2        0.140644553703660    0.509782985912698    0.307983543541623  0.0000
  O2     O2        0.366384194351608    0.480633888293828    0.307880821835919  0.0000
  O2     O2        0.860058797683464    0.494182829570365    0.705527018999667  0.0000
  O3     O3        0.628121414710238    0.449379282704387    0.690479994096662  0.0000
  O2     O2        0.248134585918762    0.264343993761399    0.329211883670065  0.0000
  O2     O2        0.259087049424023    0.725351279365531    0.327817040488148  0.0000
  O2     O2        0.752125075771994    0.252161877838322    0.682052767252498  0.0000
  O3     O3        0.743478037996602    0.707052661118051    0.660842617729476  0.0000
  O3     O3        0.140858833456562    0.246942199812574    0.143678236981436  0.0000
  O2     O2        0.357547621180125    0.731541866788355    0.131288009911343  0.0000
  O2     O2        0.852180731119268    0.241264679213130    0.879323833892586  0.0000
  O3     O3        0.644784751323600    0.722504560115266    0.876950582036693  0.0000
  O3     O3        0.828880101865924    0.754139355369194    0.869407445869157  0.0000
  O2     O2        0.654669906035491    0.217160801861564    0.876729070554162  0.0000
  O2     O2        0.153582334575937    0.772325071083963    0.142795661524980  0.0000
  O2     O2        0.334629951885455    0.246372631241563    0.122528558289747  0.0000
  O2     O2        0.626027758162380    0.465099299826596    0.047315096725475  0.0000
  O3     O3        0.869588196815871    0.494134195448844    0.052900252591066  0.0000
  O2     O2        0.361546717102391    0.488742896359931    0.945059663553568  0.0000
  O3     O3        0.123115963092084    0.531978401977628    0.965960309486013  0.0000
  O2     O2        0.753025251449958    0.277289751650449    0.071189406060328  0.0000
  O3     O3        0.734240281862998    0.701103041235328    0.085371343830042  0.0000
  O3     O3        0.239359701244630    0.280896930539573    0.924570919726851  0.0000
  O2     O2        0.249964315204154    0.718469859215713    0.947271898772432  0.0000
