data_c00773.vasp
_audit_creation_method             Generated by GULP
_audit_author_name                 Salvador R. G. Balestra
_symmetry_space_group_name_H-M     'P 1             '
_symmetry_Int_Tables_number        1

loop_
_symmetry_equiv_pos_site_id
_symmetry_equiv_pos_as_xyz
_cell_length_a                       16.8378
_cell_length_b                        7.5392
_cell_length_c                       10.5666
_cell_angle_alpha                   89.6262
_cell_angle_beta                    90.2045
_cell_angle_gamma                   90.5045

loop_
_atom_site_label
_atom_site_type_symbol
_atom_site_fract_x
_atom_site_fract_y
_atom_site_fract_z
_atom_site_charge
  Ge     Ge        0.556730000000016    0.000000000000000    0.122129999999970  0.0000
  Ge     Ge        0.941804697818026    0.023594986905754    0.136819632021919  0.0000
  Ge     Ge        0.438701241570143    0.004747728806463    0.881778897248562  0.0000
  Ge     Ge        0.854584671446286    0.345004820764535    0.728237081986726  0.0000
  Si     Si        0.049207884732983    0.013418689733722    0.389107897978946  0.0000
  Si     Si        0.452899910947243    0.004620579801461    0.374846190839462  0.0000
  Si     Si        0.955372513865847    0.032860936483178    0.644875473596525  0.0000
  Si     Si        0.545626879925157    0.006998694229301    0.635543573108365  0.0000
  Si     Si        0.051949704597605    0.009297668548183    0.899347097261977  0.0000
  Si     Si        0.148993608698319    0.325807978501791    0.297339571602480  0.0000
  Si     Si        0.350433351319253    0.693678761710444    0.283417591757386  0.0000
  Si     Si        0.647451112411628    0.698990118320729    0.735479865572003  0.0000
  Si     Si        0.829899644533098    0.760063425017707    0.738812519562796  0.0000
  Si     Si        0.668913456382304    0.291012564902580    0.725655912724218  0.0000
  Si     Si        0.167554472831780    0.733025181704692    0.291386256412809  0.0000
  Si     Si        0.332420826374495    0.283752335146521    0.288259638252179  0.0000
  Si     Si        0.675366917011700    0.277116345981744    0.021087228716895  0.0000
  Si     Si        0.825316574622099    0.746731804615383    0.032440839000082  0.0000
  Si     Si        0.324115513583306    0.277533020318363    0.996033509797627  0.0000
  Si     Si        0.165249699346833    0.729922319507107    0.996614878573116  0.0000
  Si     Si        0.349026322134422    0.679507896083646    0.990764424115440  0.0000
  Si     Si        0.140294652463602    0.331046238564439    0.004828848210341  0.0000
  Si     Si        0.642795466915377    0.671826752393504    0.027998613141323  0.0000
  Si     Si        0.858352234191594    0.349928417866591    0.026495523805031  0.0000
  O2     O2        0.090000796756815    0.209059513571238    0.384001485592346  0.0000
  O2     O2        0.412663655815883    0.809209807802653    0.364332945765427  0.0000
  O3     O3        0.923361578902656    0.231485277790651    0.639540102940016  0.0000
  O2     O2        0.585621791140315    0.814489718483946    0.654500782664924  0.0000
  O2     O2        0.876678354136160    0.908658937337661    0.657989611876620  0.0000
  O2     O2        0.612778771005092    0.160056138620252    0.645685870720142  0.0000
  O2     O2        0.118497863771639    0.867727818002746    0.376458102337251  0.0000
  O2     O2        0.383463236235638    0.152483690682048    0.375827934792171  0.0000
  O2     O2        0.004830762570015    0.985995723324214    0.521012736777727  0.0000
  O2     O2        0.505497185783176    0.014917053772191    0.499342422887534  0.0000
  O3     O3        0.984510131486044    0.987749982681383    0.280725955843683  0.0000
  O3     O3        0.511999828197566    0.045725430424640    0.261629186704515  0.0000
  O2     O2        0.013874181932728    0.996647466040961    0.762111647802798  0.0000
  O3     O3        0.475536955407192    0.036659546738259    0.733606112386778  0.0000
  O3     O3        0.643237512974863    0.125386649786680    0.110697120441993  0.0000
  O3     O3        0.857902564400858    0.888709752761990    0.128828267926248  0.0000
  O3     O3        0.355819621573925    0.137168808742604    0.900014197539665  0.0000
  O2     O2        0.126669411379642    0.875621297679987    0.905448491553992  0.0000
  O3     O3        0.408158306424748    0.785938036914727    0.902210084771826  0.0000
  O2     O2        0.080000031612644    0.212953622700194    0.922919474986583  0.0000
  O3     O3        0.581597806601059    0.777578010517238    0.112384997314879  0.0000
  O3     O3        0.915845323938487    0.243455164137684    0.119385992678623  0.0000
  O1     O1        0.502729767824737    0.071872847464701    0.995815032340978  0.0000
  O3     O3        0.995313503074840    0.945943242415405    0.010718783217726  0.0000
  O2     O2        0.137871489583932    0.533706256388806    0.324397811355476  0.0000
  O2     O2        0.362663899114910    0.485254121462296    0.310108917459768  0.0000
  O3     O3        0.866640562555153    0.570428621699598    0.709363731889353  0.0000
  O2     O2        0.636154981465769    0.491056920677695    0.706824946554128  0.0000
  O2     O2        0.239633685189869    0.269787412167256    0.324544475167582  0.0000
  O2     O2        0.261250080926928    0.749556029163488    0.320907265738414  0.0000
  O3     O3        0.759302603006939    0.285991843103425    0.681551843101573  0.0000
  O2     O2        0.736887580486815    0.758802613454002    0.699887585554324  0.0000
  O2     O2        0.123984826455897    0.285106745328983    0.152395584979755  0.0000
  O2     O2        0.367802541393109    0.737161645320447    0.136046357845286  0.0000
  O3     O3        0.875311226096175    0.289855838822671    0.883533801009805  0.0000
  O2     O2        0.627812603106135    0.735762841131825    0.882478272544623  0.0000
  O2     O2        0.835428254776430    0.810678078620098    0.886694938823886  0.0000
  O2     O2        0.666241868998754    0.229874086047334    0.872436804775182  0.0000
  O2     O2        0.153486200740452    0.780302016413149    0.143947991980640  0.0000
  O2     O2        0.342527984281700    0.224904392568048    0.142484390056628  0.0000
  O2     O2        0.628317499600214    0.461656633302553    0.043740708551581  0.0000
  O2     O2        0.871818489469831    0.559853339815968    0.045445188447179  0.0000
  O2     O2        0.363259451740099    0.471165680600770    0.971541641180798  0.0000
  O2     O2        0.124366271770721    0.537336030459994    0.974252283760531  0.0000
  O2     O2        0.767117981178915    0.302599127554293    0.056187289369261  0.0000
  O2     O2        0.733008585029867    0.718258084527029    0.065181605560446  0.0000
  O2     O2        0.230177703142728    0.285934864106181    0.973087917530215  0.0000
  O2     O2        0.257589430136492    0.724891292780446    0.961510032921377  0.0000
