data_c00735.vasp
_audit_creation_method             Generated by GULP
_audit_author_name                 Salvador R. G. Balestra
_symmetry_space_group_name_H-M     'P 1             '
_symmetry_Int_Tables_number        1

loop_
_symmetry_equiv_pos_site_id
_symmetry_equiv_pos_as_xyz
_cell_length_a                       17.3041
_cell_length_b                        7.6552
_cell_length_c                       10.1043
_cell_angle_alpha                   91.1843
_cell_angle_beta                    90.5478
_cell_angle_gamma                   90.9256

loop_
_atom_site_label
_atom_site_type_symbol
_atom_site_fract_x
_atom_site_fract_y
_atom_site_fract_z
_atom_site_charge
  Ge     Ge        0.052090000000021    0.000000000000000    0.372269999999958  0.0000
  Ge     Ge        0.653094963610272    0.693276058277001    0.720152666071646  0.0000
  Ge     Ge        0.152175467467723    0.691706909811237    0.984869616086167  0.0000
  Ge     Ge        0.843973033720693    0.335524780366883    0.046894998149909  0.0000
  Si     Si        0.450140275165301    0.022316775024797    0.387111015202158  0.0000
  Si     Si        0.945328983256000    0.011685909297255    0.626553860161295  0.0000
  Si     Si        0.546201473521517    0.992885269204902    0.648073076183590  0.0000
  Si     Si        0.556039873772012    0.009933773389182    0.142948709715620  0.0000
  Si     Si        0.945272536227472    0.029654261761614    0.114451223545356  0.0000
  Si     Si        0.441305672102767    0.008578440977821    0.901958263947949  0.0000
  Si     Si        0.052580511369576    0.992223300260959    0.870951044515014  0.0000
  Si     Si        0.166247740695987    0.296957366800336    0.294886184065285  0.0000
  Si     Si        0.338980113189133    0.718289736076051    0.288636299060214  0.0000
  Si     Si        0.841056497314354    0.311107866903779    0.730908921220576  0.0000
  Si     Si        0.833820423026066    0.713581052634319    0.721974724221313  0.0000
  Si     Si        0.663310238467749    0.285568804035952    0.731515150481413  0.0000
  Si     Si        0.161902741717179    0.704016106933412    0.298160136631866  0.0000
  Si     Si        0.344696725735263    0.317764100796380    0.289912317442337  0.0000
  Si     Si        0.662938017798155    0.308666108146058    0.042229390516199  0.0000
  Si     Si        0.831768020696855    0.735024518253484    0.033883338644998  0.0000
  Si     Si        0.340403566591793    0.312736493153129    0.981493462209552  0.0000
  Si     Si        0.333581825985326    0.707219278983366    0.976517837531781  0.0000
  Si     Si        0.160743657398001    0.284691711204219    0.988600049295081  0.0000
  Si     Si        0.653679184754799    0.706761912033563    0.034509999468439  0.0000
  O3     O3        0.113291776935256    0.181019297490187    0.386737443383722  0.0000
  O2     O2        0.394993780023584    0.852833839731096    0.366645450691576  0.0000
  O2     O2        0.896776448564542    0.187612043602357    0.646034536870564  0.0000
  O3     O3        0.587697452925622    0.809368074582561    0.629294248774637  0.0000
  O2     O2        0.891936242236356    0.839963043659903    0.645530982939025  0.0000
  O2     O2        0.614121958475620    0.139887108398414    0.650525373920351  0.0000
  O3     O3        0.107606098397634    0.816073720251588    0.392245086396918  0.0000
  O2     O2        0.401633560908330    0.198544177948245    0.372868084704394  0.0000
  O3     O3        0.976441636696292    0.009965126073652    0.479275237458404  0.0000
  O2     O2        0.483838891298750    0.024531374055041    0.534458909937360  0.0000
  O3     O3        0.010084630153449    0.985094547657505    0.217488112557947  0.0000
  O2     O2        0.522632996810087    0.016797676364349    0.289810191504172  0.0000
  O2     O2        0.020856636950906    0.009649528370739    0.721824192674132  0.0000
  O2     O2        0.501686246280835    0.002585859942081    0.785770775257245  0.0000
  O2     O2        0.610896433173821    0.178736122396106    0.126691228859609  0.0000
  O2     O2        0.874263160992897    0.889937001027326    0.115486250840033  0.0000
  O2     O2        0.390087717611726    0.182423753608326    0.891427849499882  0.0000
  O3     O3        0.088426945093577    0.803092237949292    0.888274711538868  0.0000
  O2     O2        0.386062154802509    0.837648279245068    0.892478156209692  0.0000
  O2     O2        0.119523895160887    0.137787443251267    0.896965314275902  0.0000
  O2     O2        0.602512140606406    0.830589005341384    0.127303215760738  0.0000
  O3     O3        0.907970282401382    0.217658168307855    0.139567927925651  0.0000
  O2     O2        0.485134777000552    0.012733121369753    0.041463825377538  0.0000
  O2     O2        0.981671316640427    0.023681692485508    0.968313121844515  0.0000
  O2     O2        0.142680110486435    0.498638275626834    0.310184905111352  0.0000
  O2     O2        0.365762695036127    0.521388545540037    0.318117619243174  0.0000
  O2     O2        0.862141766820555    0.513913003359971    0.703611650470311  0.0000
  O3     O3        0.630924494562551    0.474309767590720    0.701392178866657  0.0000
  O2     O2        0.256594348674303    0.277168687820295    0.331844506884191  0.0000
  O2     O2        0.251490568909707    0.742634115952983    0.337890479537316  0.0000
  O2     O2        0.752289964015952    0.274104277345988    0.685810288659370  0.0000
  O3     O3        0.747044917760911    0.730364343750098    0.669092675142317  0.0000
  O2     O2        0.151766643596375    0.232858358775550    0.142473262423001  0.0000
  O2     O2        0.340546361905368    0.754570480743083    0.132608550940426  0.0000
  O3     O3        0.851409053621745    0.269734527593523    0.883596860458152  0.0000
  O3     O3        0.642926991115348    0.759063511469366    0.883627857803731  0.0000
  O2     O2        0.834788202947715    0.766198033792001    0.876962097189057  0.0000
  O2     O2        0.660669861122646    0.249145121771758    0.888293631485916  0.0000
  O3     O3        0.146830971119214    0.760506063575358    0.147669520410480  0.0000
  O2     O2        0.354930761313341    0.271831685006340    0.135203063296107  0.0000
  O2     O2        0.629044915009552    0.504464156197150    0.055109030627226  0.0000
  O3     O3        0.870283257098313    0.552653926081340    0.066827033526430  0.0000
  O2     O2        0.364848458405974    0.511409285216069    0.950250765735394  0.0000
  O3     O3        0.125675997897969    0.473241173471434    0.967566972349865  0.0000
  O3     O3        0.749687244972972    0.304847921992309    0.096390307726696  0.0000
  O2     O2        0.742965037010516    0.730530419194598    0.078582771977326  0.0000
  O2     O2        0.250221245896243    0.287047430348677    0.947586289702511  0.0000
  O3     O3        0.245730883698285    0.721276088745217    0.930726773977020  0.0000
