data_c00772.vasp
_audit_creation_method             Generated by GULP
_audit_author_name                 Salvador R. G. Balestra
_symmetry_space_group_name_H-M     'P 1             '
_symmetry_Int_Tables_number        1

loop_
_symmetry_equiv_pos_site_id
_symmetry_equiv_pos_as_xyz
_cell_length_a                       16.8399
_cell_length_b                        7.5415
_cell_length_c                       10.5806
_cell_angle_alpha                   89.8056
_cell_angle_beta                    90.3635
_cell_angle_gamma                   89.9801

loop_
_atom_site_label
_atom_site_type_symbol
_atom_site_fract_x
_atom_site_fract_y
_atom_site_fract_z
_atom_site_charge
  Ge     Ge        0.556730000000016    0.000000000000000    0.122129999999970  0.0000
  Ge     Ge        0.942780406045443    0.018672949685950    0.133370885501005  0.0000
  Ge     Ge        0.439964192897191    0.996310701175786    0.880661176457138  0.0000
  Ge     Ge        0.353062010025678    0.677193582596486    0.288169575601906  0.0000
  Si     Si        0.046690786406551    0.007552790799265    0.386784247045744  0.0000
  Si     Si        0.456194649516159    0.987935353900142    0.377584044026139  0.0000
  Si     Si        0.954048688736989    0.016587745678092    0.646212509808464  0.0000
  Si     Si        0.550109493628833    0.998448786996201    0.634890352042508  0.0000
  Si     Si        0.054370601803588    0.004660364987421    0.897378285235605  0.0000
  Si     Si        0.148519167778378    0.314586951150232    0.290012268281947  0.0000
  Si     Si        0.853731829831969    0.328677644180608    0.732854084058171  0.0000
  Si     Si        0.649946433414774    0.686590909157385    0.727794494092700  0.0000
  Si     Si        0.832558993730279    0.736052421148943    0.731476674202670  0.0000
  Si     Si        0.671340231150234    0.279036849491105    0.730365752537954  0.0000
  Si     Si        0.166873140654382    0.723025090679952    0.293467072249832  0.0000
  Si     Si        0.331984755943985    0.259578215881238    0.282176202160327  0.0000
  Si     Si        0.675226534198978    0.276161139446032    0.023790407969983  0.0000
  Si     Si        0.826866578398359    0.742762930946340    0.024641610584612  0.0000
  Si     Si        0.325063122185498    0.270173901929789    0.990159948908997  0.0000
  Si     Si        0.167536430625289    0.724874489173782    0.997436738912678  0.0000
  Si     Si        0.351947003302634    0.672592682331191    0.990808108663839  0.0000
  Si     Si        0.141198682899853    0.327489894341921    0.998211962603619  0.0000
  Si     Si        0.644047170560544    0.673066776907086    0.020213625787003  0.0000
  Si     Si        0.857618964032773    0.345663444764546    0.025733513585985  0.0000
  O2     O2        0.089383927155428    0.198843802667759    0.374985027803599  0.0000
  O3     O3        0.423446806836166    0.788993112750615    0.375716597107916  0.0000
  O2     O2        0.914880601286830    0.212516801256457    0.651034464177167  0.0000
  O2     O2        0.588741176163723    0.801608345096827    0.643684160520699  0.0000
  O2     O2        0.883524640592944    0.871214922600208    0.647247828598092  0.0000
  O2     O2        0.620466461335134    0.142977377928689    0.647018623817758  0.0000
  O2     O2        0.112503477045924    0.853190123240177    0.375010398808270  0.0000
  O2     O2        0.378262299456939    0.114661088955262    0.366076837894389  0.0000
  O2     O2        0.004889600841556    0.995493167107339    0.521110427846307  0.0000
  O2     O2        0.506418060522551    0.025476281832631    0.502549184896066  0.0000
  O3     O3        0.980002824770336    0.982829439467311    0.280986936496765  0.0000
  O3     O3        0.515280356101002    0.033485719403589    0.265430982999336  0.0000
  O2     O2        0.013472338555176    0.982736494017354    0.762531055897048  0.0000
  O3     O3        0.482548992590093    0.026393522020048    0.737018535854335  0.0000
  O3     O3        0.641587560516336    0.129374526221223    0.114629726509181  0.0000
  O3     O3        0.858300409971160    0.889279663681341    0.117793842477224  0.0000
  O3     O3        0.357269977003958    0.133660090438353    0.890892355415545  0.0000
  O2     O2        0.130240146509479    0.873061018519164    0.906251034634475  0.0000
  O3     O3        0.408777341429275    0.778572373637466    0.898065208994833  0.0000
  O2     O2        0.081820337106599    0.209681257443253    0.914053867470952  0.0000
  O3     O3        0.582317129663880    0.778661123883636    0.103416600510747  0.0000
  O3     O3        0.917836732076687    0.239434679598588    0.113315689359116  0.0000
  O1     O1        0.498881595133926    0.069953777366184    0.000133638424501  0.0000
  O3     O3        0.000378849732732    0.942656601358058    0.011984663865277  0.0000
  O2     O2        0.137391747980211    0.521842513811573    0.318722268819986  0.0000
  O3     O3        0.366406922713984    0.453011295686404    0.308799452468817  0.0000
  O2     O2        0.865000823932631    0.537558131150668    0.706219177134058  0.0000
  O2     O2        0.638707573933928    0.477455782195738    0.702896028093733  0.0000
  O2     O2        0.238938034176278    0.257127747942193    0.318300955960268  0.0000
  O3     O3        0.258204769234881    0.737063981485719    0.332495642233324  0.0000
  O2     O2        0.764255526389193    0.270564745361400    0.695099602493659  0.0000
  O2     O2        0.739613961392145    0.744430676105493    0.693631379177448  0.0000
  O2     O2        0.124830866558848    0.275219803972591    0.144357590676791  0.0000
  O3     O3        0.371925075554276    0.735037045378290    0.132936563794549  0.0000
  O2     O2        0.872338951833095    0.289091467337809    0.879911675028352  0.0000
  O2     O2        0.628491745394876    0.728398605195085    0.873333094156972  0.0000
  O2     O2        0.840299840072122    0.793723081349379    0.877417660678870  0.0000
  O2     O2        0.662466015488329    0.223186322004569    0.876603625301355  0.0000
  O2     O2        0.158529470059890    0.774307098234200    0.145253844098587  0.0000
  O2     O2        0.340737308345252    0.206178686785887    0.134873267747430  0.0000
  O2     O2        0.630546919928274    0.464426946439155    0.042797183654466  0.0000
  O2     O2        0.871047601866983    0.554337134086037    0.047332129471648  0.0000
  O2     O2        0.366437292229311    0.462835318755278    0.975427014041730  0.0000
  O2     O2        0.124489018095296    0.535276426783538    0.973490604037509  0.0000
  O2     O2        0.767457488982056    0.295835689855353    0.058358554655905  0.0000
  O2     O2        0.733961813350554    0.723663841101614    0.054262179733799  0.0000
  O2     O2        0.231458753843458    0.286722185947819    0.964591683631613  0.0000
  O2     O2        0.259684752152983    0.714777823908499    0.962852593922692  0.0000
