data_c00779.vasp
_audit_creation_method             Generated by GULP
_audit_author_name                 Salvador R. G. Balestra
_symmetry_space_group_name_H-M     'P 1             '
_symmetry_Int_Tables_number        1

loop_
_symmetry_equiv_pos_site_id
_symmetry_equiv_pos_as_xyz
_cell_length_a                       17.0145
_cell_length_b                        7.5745
_cell_length_c                       10.3700
_cell_angle_alpha                   90.0001
_cell_angle_beta                    89.9998
_cell_angle_gamma                   89.4326

loop_
_atom_site_label
_atom_site_type_symbol
_atom_site_fract_x
_atom_site_fract_y
_atom_site_fract_z
_atom_site_charge
  Ge     Ge        0.556730000000016    0.000000000000000    0.122129999999970  0.0000
  Ge     Ge        0.950365743394467    0.980778504594185    0.122130691740948  0.0000
  Ge     Ge        0.170737801808671    0.257750362205532    0.293489197968796  0.0000
  Ge     Ge        0.336359279314940    0.723024192244508    0.293489559728254  0.0000
  Si     Si        0.049918199688900    0.982602093755642    0.383091161181675  0.0000
  Si     Si        0.457178003393964    0.998172838160485    0.383090872334686  0.0000
  Si     Si        0.952879519926614    0.974890080723665    0.639829746521812  0.0000
  Si     Si        0.554219100096375    0.005882953465563    0.639826381646027  0.0000
  Si     Si        0.445352780229558    0.992400973074248    0.879693934409954  0.0000
  Si     Si        0.061744605217707    0.988374488547974    0.879696902051657  0.0000
  Si     Si        0.834955492481816    0.264201595568971    0.738292812711896  0.0000
  Si     Si        0.672141984612450    0.716572582399837    0.738291245879625  0.0000
  Si     Si        0.852178065519841    0.669699315304981    0.737674616613915  0.0000
  Si     Si        0.654919484508048    0.311074260383772    0.737675005059728  0.0000
  Si     Si        0.152646793361226    0.675907602778107    0.293033599460825  0.0000
  Si     Si        0.354450817347070    0.304866189469747    0.293031658398519  0.0000
  Si     Si        0.649544354146982    0.323884578130543    0.037544266034808  0.0000
  Si     Si        0.857551602042404    0.656893150982269    0.037544095046367  0.0000
  Si     Si        0.354104453271033    0.310708267590930    0.992433688655228  0.0000
  Si     Si        0.152993069194597    0.670066263814768    0.992434018991396  0.0000
  Si     Si        0.336195696678022    0.713474718862765    0.988025349313698  0.0000
  Si     Si        0.170901244187078    0.267300633767583    0.988026593342951  0.0000
  Si     Si        0.677267264886601    0.719871072391781    0.038507780698725  0.0000
  Si     Si        0.829828462143310    0.260906988616256    0.038509309696946  0.0000
  O3     O3        0.118490338456800    0.125420715729731    0.395980938954361  0.0000
  O3     O3        0.388607492305555    0.855350546829290    0.395983129442394  0.0000
  O2     O2        0.887592692443812    0.128561325871115    0.656245646038678  0.0000
  O2     O2        0.619505511104846    0.852210508967504    0.656240825866047  0.0000
  O2     O2        0.912565741264514    0.784259461934924    0.654331050082331  0.0000
  O2     O2        0.594532887243986    0.196513161125082    0.654330205086538  0.0000
  O2     O2        0.088273808085478    0.786752520043049    0.373817684792864  0.0000
  O2     O2        0.418821376193045    0.194021500209921    0.373820295222831  0.0000
  O2     O2        0.987418068728041    0.988727259072174    0.497374616979731  0.0000
  O2     O2        0.519680251721422    0.992049338233070    0.497369702037575  0.0000
  O3     O3        0.005512574978712    0.032660348413780    0.252384945922285  0.0000
  O3     O3        0.501577490857471    0.948120585270834    0.252377265239415  0.0000
  O2     O2        0.025744764909779    0.995324388314657    0.737139544838464  0.0000
  O2     O2        0.481353883442101    0.985447027413627    0.737136080294817  0.0000
  O3     O3        0.587744652181126    0.216800191693774    0.120588712599037  0.0000
  O3     O3        0.919352095908795    0.763977408522956    0.120586588550112  0.0000
  O2     O2        0.411843136957000    0.189810109577179    0.907394254232299  0.0000
  O2     O2        0.095251595773490    0.790964562230899    0.907400195828935  0.0000
  O2     O2        0.375280859663288    0.849711804095502    0.888917514513225  0.0000
  O2     O2        0.131817651900493    0.131061381847131    0.888918694621746  0.0000
  O3     O3        0.639727093482205    0.865999903970821    0.127245894812084  0.0000
  O3     O3        0.867367483737694    0.114776484122841    0.127246434178808  0.0000
  O3     O3        0.510151662837188    0.939154469447026    0.982495108370340  0.0000
  O3     O3        0.996945732778530    0.041627835006586    0.982497856978025  0.0000
  O3     O3        0.152798570167867    0.475128751477162    0.335607476335892  0.0000
  O3     O3        0.354298852435044    0.505645261749768    0.335605064840977  0.0000
  O2     O2        0.866052647962325    0.461882967889785    0.711446264449023  0.0000
  O2     O2        0.641044997835869    0.518890548011361    0.711446471697501  0.0000
  O3     O3        0.269884088090168    0.217662359768547    0.312716478989760  0.0000
  O3     O3        0.237213076277696    0.763111992301122    0.312721362455665  0.0000
  O2     O2        0.743501697351601    0.254937019030372    0.697291067008898  0.0000
  O2     O2        0.763596008272506    0.725836317457745    0.697290055395274  0.0000
  O3     O3        0.146989946585964    0.221260243042674    0.133465006843200  0.0000
  O3     O3        0.360104817537881    0.759515764720171    0.133464532386016  0.0000
  O2     O2        0.840533094813215    0.211039382388883    0.887785074011973  0.0000
  O2     O2        0.666563069026764    0.769738365460074    0.887783293096159  0.0000
  O2     O2        0.869151363792870    0.710881201588884    0.887428894841568  0.0000
  O2     O2        0.637945033350028    0.269893800300783    0.887429337922315  0.0000
  O2     O2        0.128968560559698    0.694313262663951    0.141647025082351  0.0000
  O2     O2        0.378131387004276    0.286459596937988    0.141645478779027  0.0000
  O2     O2        0.634957256200118    0.531431029618166    0.060186706699316  0.0000
  O2     O2        0.872138380648130    0.449347118577947    0.060188531722353  0.0000
  O2     O2        0.364442355740411    0.514485156211284    0.952453667486387  0.0000
  O2     O2        0.142654961055829    0.466289571683384    0.952453050220767  0.0000
  O2     O2        0.738500121224612    0.274896142060026    0.076246816602172  0.0000
  O2     O2        0.768595540999054    0.705883315494293    0.076245794460016  0.0000
  O2     O2        0.264689521498665    0.251432342022318    0.973351847110337  0.0000
  O2     O2        0.242407535276135    0.729344096151368    0.973346234930178  0.0000
