data_c00790.vasp
_audit_creation_method             Generated by GULP
_audit_author_name                 Salvador R. G. Balestra
_symmetry_space_group_name_H-M     'P 1             '
_symmetry_Int_Tables_number        1

loop_
_symmetry_equiv_pos_site_id
_symmetry_equiv_pos_as_xyz
_cell_length_a                       16.9721
_cell_length_b                        7.6007
_cell_length_c                       10.3680
_cell_angle_alpha                   90.4710
_cell_angle_beta                    90.6139
_cell_angle_gamma                   89.7015

loop_
_atom_site_label
_atom_site_type_symbol
_atom_site_fract_x
_atom_site_fract_y
_atom_site_fract_z
_atom_site_charge
  Ge     Ge        0.556730000000016    0.000000000000000    0.122129999999970  0.0000
  Ge     Ge        0.947302626896048    0.985820671686483    0.114303758444362  0.0000
  Ge     Ge        0.169945816255423    0.268504056590797    0.288853117052988  0.0000
  Ge     Ge        0.332265855809115    0.710665601030894    0.972724241021419  0.0000
  Si     Si        0.051953750746158    0.987817355153876    0.374476843731331  0.0000
  Si     Si        0.455878762657217    0.001002622235836    0.377340584055240  0.0000
  Si     Si        0.953148161588639    0.974210345384832    0.628954237734203  0.0000
  Si     Si        0.554023940198096    0.001407248772157    0.635619663905343  0.0000
  Si     Si        0.444533524994240    0.989132276906187    0.880445564196751  0.0000
  Si     Si        0.057970918750480    0.985731276608378    0.875363384372517  0.0000
  Si     Si        0.337082262397582    0.717593274657718    0.279434261244626  0.0000
  Si     Si        0.835905020768780    0.264944716635764    0.724971630084727  0.0000
  Si     Si        0.671157620081994    0.713164598719068    0.718676602796604  0.0000
  Si     Si        0.852741821310547    0.669250943384203    0.725155138849182  0.0000
  Si     Si        0.655516816894833    0.310150175996987    0.716231371328002  0.0000
  Si     Si        0.155849245772491    0.679054466240691    0.284892010444284  0.0000
  Si     Si        0.355081063120238    0.309855840247147    0.281773923237932  0.0000
  Si     Si        0.647420181888712    0.322193970784399    0.016704953853703  0.0000
  Si     Si        0.855703384812511    0.660141846161828    0.024106157325346  0.0000
  Si     Si        0.352874465466038    0.307556864608891    0.981910699665910  0.0000
  Si     Si        0.148589999910695    0.666057236711529    0.982014089571258  0.0000
  Si     Si        0.168975255035889    0.266056243077723    0.982879877060799  0.0000
  Si     Si        0.673937297453761    0.718248905628774    0.018745163035412  0.0000
  Si     Si        0.828100184383296    0.264299273461259    0.025281914375793  0.0000
  O3     O3        0.118339536705542    0.135492224005673    0.390228774309048  0.0000
  O2     O2        0.388094355371435    0.853332769009633    0.364608952751727  0.0000
  O2     O2        0.888567311182594    0.128957735757339    0.643980897292498  0.0000
  O2     O2        0.620565342917596    0.848201383074355    0.632299742968386  0.0000
  O2     O2        0.911637602018210    0.784753126207972    0.640936330566997  0.0000
  O2     O2        0.596669103884609    0.190810696384322    0.630481211223723  0.0000
  O2     O2        0.096018999776666    0.799747884771967    0.365135529160045  0.0000
  O2     O2        0.418755153953361    0.196648091079966    0.362195011106074  0.0000
  O2     O2        0.989487606876115    0.985870264213102    0.488211876811059  0.0000
  O2     O2        0.494358405044576    0.982501640427678    0.517506885910508  0.0000
  O3     O3        0.004966615970696    0.032496807587818    0.244415629846366  0.0000
  O3     O3        0.523996635047230    0.971362861501011    0.275389268202107  0.0000
  O2     O2        0.024633802060747    0.994008749658170    0.730565343773414  0.0000
  O2     O2        0.503719706818738    0.983004588193690    0.763709177284637  0.0000
  O3     O3        0.584139760649705    0.215579870120867    0.095361449014878  0.0000
  O3     O3        0.915618661169638    0.769752732574161    0.111581391027399  0.0000
  O2     O2        0.408008221347467    0.184998184709336    0.894537474299264  0.0000
  O2     O2        0.084511530017378    0.785104447663628    0.907231540575528  0.0000
  O3     O3        0.374080087668745    0.851607566298779    0.865288095902953  0.0000
  O2     O2        0.130985656526982    0.121834788616992    0.886996620537223  0.0000
  O3     O3        0.638336241643194    0.865448371651576    0.108492949010957  0.0000
  O3     O3        0.865372891238362    0.122219047947975    0.117498044177636  0.0000
  O3     O3        0.487859012585938    0.929675270109405    0.011517927923914  0.0000
  O3     O3        0.993631413225602    0.048411249297180    0.975578743611384  0.0000
  O3     O3        0.136234060197948    0.480025206356641    0.313353356676117  0.0000
  O2     O2        0.369876734980680    0.518905971654338    0.298413683136424  0.0000
  O2     O2        0.867539771784679    0.462084151724659    0.699909257182056  0.0000
  O2     O2        0.640393272293749    0.515955157332522    0.688368997886605  0.0000
  O3     O3        0.268808795379794    0.261626956551013    0.328004702497360  0.0000
  O2     O2        0.246088411576147    0.724828842819293    0.324263890356935  0.0000
  O2     O2        0.744768372368442    0.256371249636172    0.679507163775372  0.0000
  O2     O2        0.763561010971554    0.722462227414476    0.685161374197517  0.0000
  O3     O3        0.158795532862549    0.205145810472622    0.129290835326633  0.0000
  O3     O3        0.341352970939619    0.775826703625839    0.132023035552945  0.0000
  O2     O2        0.839832138671905    0.212955119397741    0.874820964241572  0.0000
  O2     O2        0.661093119469060    0.766502959801366    0.868199906734012  0.0000
  O2     O2        0.870512193673368    0.713061373691187    0.875009076023983  0.0000
  O2     O2        0.638193214861111    0.271262806202265    0.865589080590816  0.0000
  O2     O2        0.144335454362138    0.718791046500569    0.132894289843322  0.0000
  O2     O2        0.366748964554092    0.256594726444384    0.131773576261142  0.0000
  O2     O2        0.632665462690266    0.529437323351107    0.040717622210978  0.0000
  O2     O2        0.869575081217750    0.453730837915944    0.047982529751307  0.0000
  O3     O3        0.375498557238008    0.505845366079436    0.956235251145430  0.0000
  O2     O2        0.128676013814707    0.458720266078761    0.964459640181038  0.0000
  O2     O2        0.736132203891668    0.274219993615117    0.060099955874595  0.0000
  O2     O2        0.765797962013648    0.707941744273356    0.055672884139530  0.0000
  O2     O2        0.260864994913552    0.279457515609957    0.948490701637480  0.0000
  O3     O3        0.234281474603644    0.703077374001988    0.929095691989429  0.0000
