data_c00789.vasp
_audit_creation_method             Generated by GULP
_audit_author_name                 Salvador R. G. Balestra
_symmetry_space_group_name_H-M     'P 1             '
_symmetry_Int_Tables_number        1

loop_
_symmetry_equiv_pos_site_id
_symmetry_equiv_pos_as_xyz
_cell_length_a                       16.8850
_cell_length_b                        7.5788
_cell_length_c                       10.4728
_cell_angle_alpha                   90.7326
_cell_angle_beta                    89.9879
_cell_angle_gamma                   89.9877

loop_
_atom_site_label
_atom_site_type_symbol
_atom_site_fract_x
_atom_site_fract_y
_atom_site_fract_z
_atom_site_charge
  Ge     Ge        0.556730000000016    0.000000000000000    0.122129999999970  0.0000
  Ge     Ge        0.945079514937728    0.015711591395999    0.108697502363423  0.0000
  Ge     Ge        0.145085327608060    0.332357093156363    0.280344418416420  0.0000
  Ge     Ge        0.166540199167957    0.729214951484431    0.967263033497580  0.0000
  Si     Si        0.042586168676274    0.024655186645918    0.371120784801903  0.0000
  Si     Si        0.449769130666996    0.007675357352911    0.371913720679458  0.0000
  Si     Si        0.943447776280727    0.015471778239302    0.624296073019512  0.0000
  Si     Si        0.541020024609719    0.996316312308094    0.635099615483770  0.0000
  Si     Si        0.440541803154527    0.001948159272081    0.887258341756973  0.0000
  Si     Si        0.054903750114728    0.005942405829560    0.867848802314458  0.0000
  Si     Si        0.345283303094826    0.698516371580578    0.273905202303343  0.0000
  Si     Si        0.843383879861445    0.327134713398400    0.706794425739805  0.0000
  Si     Si        0.643071266305743    0.687000939950206    0.720146386987547  0.0000
  Si     Si        0.825304625574712    0.731324885978007    0.711904990781755  0.0000
  Si     Si        0.661751873318045    0.281395499492518    0.717157117111379  0.0000
  Si     Si        0.164084084177746    0.748890746710901    0.269265787497611  0.0000
  Si     Si        0.330981753787436    0.294292530140684    0.282503265721512  0.0000
  Si     Si        0.672497013543210    0.276714826381918    0.013568765622603  0.0000
  Si     Si        0.826114600451274    0.735109597132753    0.008959210627181  0.0000
  Si     Si        0.327451661455286    0.283925610799551    0.983856716333161  0.0000
  Si     Si        0.351023625284064    0.678374764170333    0.974728716951288  0.0000
  Si     Si        0.142056949414086    0.324277810902421    0.981125419402081  0.0000
  Si     Si        0.643903151469513    0.673843262688245    0.015923204651270  0.0000
  Si     Si        0.854282963300402    0.338541811759320    0.003434199085418  0.0000
  O3     O3        0.077810168335584    0.220846961935699    0.372525121611643  0.0000
  O2     O2        0.407265243891100    0.819196549372942    0.350219081517491  0.0000
  O2     O2        0.901962293682277    0.207993425173544    0.620017777149557  0.0000
  O2     O2        0.581996797489941    0.803548414398809    0.639046607168521  0.0000
  O2     O2        0.875057681754374    0.866649805839823    0.626938719248508  0.0000
  O2     O2        0.609253259991794    0.145712399070255    0.634519952499622  0.0000
  O2     O2        0.117015745706871    0.891588378562268    0.354604176649868  0.0000
  O2     O2        0.385452885192386    0.164233623564548    0.363435901286074  0.0000
  O2     O2        0.997634770945604    0.985269665389857    0.501892324160473  0.0000
  O2     O2        0.488284844914571    0.010994138787144    0.510420122732480  0.0000
  O3     O3        0.979845851068183    0.992783022194536    0.259676603723096  0.0000
  O3     O3        0.518793806430061    0.035686868402399    0.270857137942158  0.0000
  O2     O2        0.999325372380975    0.999112627249963    0.746224134352798  0.0000
  O2     O2        0.482572915208941    0.028464209718083    0.753221586923985  0.0000
  O3     O3        0.639084044831243    0.133087694780011    0.106531576827120  0.0000
  O3     O3        0.862454832245268    0.882193138459556    0.098385938976183  0.0000
  O2     O2        0.363200409646219    0.129054291454244    0.895640248141665  0.0000
  O3     O3        0.126492032182499    0.868551707753120    0.856601705506678  0.0000
  O2     O2        0.415270365908804    0.796486530818733    0.900767523300280  0.0000
  O2     O2        0.088905430653029    0.204108917835939    0.887025985872362  0.0000
  O3     O3        0.584700580657106    0.781482711764848    0.104813193707129  0.0000
  O3     O3        0.918420987441616    0.232801314462684    0.082079274807009  0.0000
  O3     O3        0.494093091690410    0.066408826454594    0.003541812880071  0.0000
  O3     O3        0.009808166918162    0.940934305844662    0.994184965721051  0.0000
  O3     O3        0.128007532143379    0.555772963585425    0.288134170585484  0.0000
  O2     O2        0.362559587226708    0.494202619620313    0.303222340961217  0.0000
  O2     O2        0.856880965480495    0.533921508446400    0.680329070956634  0.0000
  O2     O2        0.629236803118138    0.479204881621203    0.694196331444904  0.0000
  O3     O3        0.240651447605333    0.284591046799005    0.326648643795502  0.0000
  O2     O2        0.255799650363714    0.746255117733516    0.314865125385176  0.0000
  O2     O2        0.753227584933826    0.273047291067184    0.673151112543080  0.0000
  O2     O2        0.732111522642944    0.740932089093166    0.679331836257213  0.0000
  O3     O3        0.126301347320790    0.262033182368557    0.125004576970468  0.0000
  O2     O2        0.356077532584279    0.734948283201359    0.123855511038788  0.0000
  O2     O2        0.863787710386888    0.287225948911379    0.853774243563504  0.0000
  O2     O2        0.627325711735490    0.729509322785066    0.869228579624384  0.0000
  O2     O2        0.836723818513114    0.784557057330483    0.859980126650112  0.0000
  O2     O2        0.657593549371391    0.225390866953492    0.864918752567083  0.0000
  O3     O3        0.160346196721356    0.806730680452219    0.122890549113227  0.0000
  O2     O2        0.335609131167605    0.237600998185759    0.133323704418873  0.0000
  O2     O2        0.630559585992066    0.466384150832223    0.037489108593565  0.0000
  O2     O2        0.868797205751920    0.546069641424565    0.028503208776631  0.0000
  O2     O2        0.371313055064510    0.470388875283821    0.956988475616197  0.0000
  O3     O3        0.119992063027692    0.526065318392704    0.962138096493984  0.0000
  O2     O2        0.765523574513079    0.288698420263020    0.044494362322767  0.0000
  O2     O2        0.734413404247674    0.721947019808836    0.047011893366123  0.0000
  O2     O2        0.235315377939945    0.302379507069378    0.950007183240022  0.0000
  O3     O3        0.264293951400054    0.712761155156403    0.922486441521772  0.0000
