data_c00729.vasp
_audit_creation_method             Generated by GULP
_audit_author_name                 Salvador R. G. Balestra
_symmetry_space_group_name_H-M     'P 1             '
_symmetry_Int_Tables_number        1

loop_
_symmetry_equiv_pos_site_id
_symmetry_equiv_pos_as_xyz
_cell_length_a                       17.2260
_cell_length_b                        7.6525
_cell_length_c                       10.2055
_cell_angle_alpha                   89.6222
_cell_angle_beta                    89.7537
_cell_angle_gamma                   90.5157

loop_
_atom_site_label
_atom_site_type_symbol
_atom_site_fract_x
_atom_site_fract_y
_atom_site_fract_z
_atom_site_charge
  Ge     Ge        0.052090000000021    0.000000000000000    0.372269999999958  0.0000
  Ge     Ge        0.660885175748032    0.703972194049168    0.702809215489932  0.0000
  Ge     Ge        0.351015753127288    0.349030878167954    0.951356643576921  0.0000
  Ge     Ge        0.165382933236010    0.325547036519794    0.955182677541030  0.0000
  Si     Si        0.451239943016811    0.017044544772315    0.368130253991033  0.0000
  Si     Si        0.951060422320860    0.998905133408342    0.637242812914111  0.0000
  Si     Si        0.548758541186155    0.997210449261934    0.625921141554886  0.0000
  Si     Si        0.559573940265494    0.009862886821271    0.122835733837749  0.0000
  Si     Si        0.943375761585169    0.014065185125880    0.123236119622298  0.0000
  Si     Si        0.447775636268758    0.032356668223373    0.879599555118946  0.0000
  Si     Si        0.056451232619083    0.025785852212519    0.886011191356330  0.0000
  Si     Si        0.169563484697373    0.295694693920223    0.264845482502335  0.0000
  Si     Si        0.340636118215353    0.721827360176834    0.280437838892540  0.0000
  Si     Si        0.840055057994376    0.293964751393817    0.716231971366053  0.0000
  Si     Si        0.842525558655847    0.694667527323589    0.700516998485942  0.0000
  Si     Si        0.659030057922146    0.294456217598549    0.717768305898797  0.0000
  Si     Si        0.161577104945965    0.703351948202040    0.281372190913654  0.0000
  Si     Si        0.346891042037985    0.319111042229396    0.266264644048972  0.0000
  Si     Si        0.659345924185567    0.315075685879963    0.021654453654794  0.0000
  Si     Si        0.842271416923006    0.707070669680163    0.009708962914704  0.0000
  Si     Si        0.157456140063620    0.723697714606051    0.981547606926929  0.0000
  Si     Si        0.339278861854563    0.744430507832961    0.975888669880483  0.0000
  Si     Si        0.663907780017042    0.717241354392788    0.014826581842362  0.0000
  Si     Si        0.839543552996910    0.309745519373235    0.021300159890884  0.0000
  O3     O3        0.113924861339840    0.175185006612645    0.350965443722252  0.0000
  O2     O2        0.393514777822826    0.849474899940813    0.367409718159406  0.0000
  O2     O2        0.890979786117347    0.160495646836982    0.632883250991201  0.0000
  O3     O3        0.599507318005427    0.825720971240175    0.607418885564912  0.0000
  O2     O2        0.902717275354011    0.817652233235586    0.620685989739925  0.0000
  O2     O2        0.608417816362356    0.159882410570705    0.634708863443712  0.0000
  O3     O3        0.103894291337381    0.807198950648510    0.372920595856373  0.0000
  O2     O2        0.404807973682831    0.195540213959514    0.346061010016598  0.0000
  O3     O3        0.014900869192781    0.021718918477616    0.527823305724318  0.0000
  O2     O2        0.489097155045236    0.028706413725911    0.509940370991994  0.0000
  O3     O3        0.973344427355825    0.997329117034904    0.269298564334820  0.0000
  O2     O2        0.520461558958181    0.995487218826967    0.264303800396999  0.0000
  O2     O2        0.992512675728093    0.992721310861405    0.777530590098222  0.0000
  O2     O2        0.499123796540856    0.973897766152941    0.758261811403529  0.0000
  O2     O2        0.607609185682204    0.192222677505388    0.115684915342067  0.0000
  O2     O2        0.898831672245535    0.835959292160811    0.085959562861209  0.0000
  O3     O3        0.417578902003254    0.227577223615897    0.864364343591435  0.0000
  O2     O2        0.115023093060378    0.862471625205146    0.889837671011105  0.0000
  O2     O2        0.371645462921246    0.906736651195414    0.891398071767913  0.0000
  O3     O3        0.106241197212011    0.198242719056152    0.858155874606152  0.0000
  O2     O2        0.615588920156771    0.844263927584430    0.107884084296238  0.0000
  O2     O2        0.886858254365423    0.180696618487939    0.114319262735185  0.0000
  O2     O2        0.494657595419370    0.005143365066633    0.012747608013572  0.0000
  O2     O2        0.016493859521246    0.046311299081518    0.028197799248822  0.0000
  O2     O2        0.143928950734712    0.497108419993853    0.282737034790291  0.0000
  O2     O2        0.367574538166543    0.521596078556177    0.298064519220598  0.0000
  O2     O2        0.864663367100377    0.491945016227679    0.678099072564478  0.0000
  O3     O3        0.634325788158068    0.488477873884440    0.683625805226645  0.0000
  O2     O2        0.258775425724644    0.276488896300801    0.311860570530012  0.0000
  O2     O2        0.250780932269903    0.739663351361892    0.323298777184319  0.0000
  O2     O2        0.749559875514141    0.264846376187217    0.683808630455701  0.0000
  O3     O3        0.756079469990707    0.728914410185471    0.652199841978403  0.0000
  O3     O3        0.165192693533544    0.243909040278282    0.113683180259742  0.0000
  O2     O2        0.350631866494466    0.781569966592342    0.129946188163844  0.0000
  O2     O2        0.854031697063951    0.258678618086487    0.870323455703871  0.0000
  O3     O3        0.652617755448983    0.768085531950656    0.864242255184286  0.0000
  O2     O2        0.846978236678728    0.739849063552350    0.854536187620245  0.0000
  O2     O2        0.644473376601883    0.257238495610328    0.872257054271629  0.0000
  O2     O2        0.147077777420330    0.777401649167282    0.133854271627466  0.0000
  O3     O3        0.355179700288691    0.283401317210395    0.113449570901605  0.0000
  O2     O2        0.635465604069303    0.516905912670039    0.038993262045995  0.0000
  O2     O2        0.867550830559464    0.509045527749676    0.044603957375835  0.0000
  O3     O3        0.380194900556711    0.565424414908258    0.937578072184506  0.0000
  O3     O3        0.125366527247579    0.531967110288428    0.954619413461563  0.0000
  O2     O2        0.749144245787578    0.290330689902947    0.057559608486632  0.0000
  O2     O2        0.753951086721726    0.737237775281156    0.055207358343973  0.0000
  O1     O1        0.258341760971212    0.321032996947511    0.896284852301650  0.0000
  O2     O2        0.248538258002313    0.717383542652590    0.945254087059956  0.0000
