data_c00765.vasp
_audit_creation_method             Generated by GULP
_audit_author_name                 Salvador R. G. Balestra
_symmetry_space_group_name_H-M     'P 1             '
_symmetry_Int_Tables_number        1

loop_
_symmetry_equiv_pos_site_id
_symmetry_equiv_pos_as_xyz
_cell_length_a                       17.1100
_cell_length_b                        7.5873
_cell_length_c                       10.3300
_cell_angle_alpha                   89.9031
_cell_angle_beta                    90.9395
_cell_angle_gamma                   90.2170

loop_
_atom_site_label
_atom_site_type_symbol
_atom_site_fract_x
_atom_site_fract_y
_atom_site_fract_z
_atom_site_charge
  Ge     Ge        0.052090000000021    0.000000000000000    0.372269999999958  0.0000
  Ge     Ge        0.851477316119426    0.676678803272886    0.018697095311207  0.0000
  Ge     Ge        0.143370402699779    0.671192995523203    0.968805968020386  0.0000
  Ge     Ge        0.165740168009896    0.256480502076909    0.977820130140990  0.0000
  Si     Si        0.452318921016335    0.015179034350661    0.359099244432813  0.0000
  Si     Si        0.942043007533056    0.002032180392272    0.625962356971866  0.0000
  Si     Si        0.543545672258818    0.009534730432020    0.627106751008803  0.0000
  Si     Si        0.557042081531130    0.996785269966496    0.111640882796350  0.0000
  Si     Si        0.947670789048172    0.995373150606496    0.116117030911203  0.0000
  Si     Si        0.440603160174389    0.005737500141371    0.876691674736934  0.0000
  Si     Si        0.050087609373310    0.984700864518644    0.873318206429498  0.0000
  Si     Si        0.172569391393180    0.280171196424729    0.280253239056174  0.0000
  Si     Si        0.333363010821094    0.727608051806214    0.268237828073322  0.0000
  Si     Si        0.827686826039744    0.289358156123974    0.704257955050526  0.0000
  Si     Si        0.660970506725859    0.720393676563913    0.719728610206956  0.0000
  Si     Si        0.840424584438040    0.694554291126389    0.710304133401107  0.0000
  Si     Si        0.648348921252952    0.315907676626420    0.710951519130856  0.0000
  Si     Si        0.154596221400945    0.692603572281014    0.270387015143175  0.0000
  Si     Si        0.350752269883782    0.325976049623089    0.275592248829786  0.0000
  Si     Si        0.652208151783617    0.310502828504333    0.012072917908539  0.0000
  Si     Si        0.348161035675830    0.322499765955974    0.971890092052793  0.0000
  Si     Si        0.327460625637587    0.717850435140875    0.964208730916960  0.0000
  Si     Si        0.667920970846175    0.709180510219931    0.023077030325056  0.0000
  Si     Si        0.832341022609717    0.271260020317602    0.007374068194935  0.0000
  O3     O3        0.121800470025082    0.165590382918591    0.376744110588547  0.0000
  O2     O2        0.384169607060062    0.869281214846778    0.347014431927395  0.0000
  O2     O2        0.878341555861363    0.159321315349188    0.616424380178701  0.0000
  O2     O2        0.607617526428527    0.855596784434806    0.639957015416374  0.0000
  O2     O2        0.896198990547754    0.815143712025588    0.622109291440666  0.0000
  O2     O2        0.587405125032582    0.198495883296815    0.628619670830404  0.0000
  O3     O3        0.096034083055295    0.796018315389014    0.361316547883884  0.0000
  O2     O2        0.413523029610031    0.209087762240969    0.354608644227963  0.0000
  O3     O3        0.003974112842077    0.010264323119420    0.515517778766932  0.0000
  O2     O2        0.497414194175915    0.988469816656795    0.493300842784349  0.0000
  O3     O3        0.981336601668275    0.039150993309770    0.255695918808502  0.0000
  O2     O2        0.513928520758819    0.990105527382710    0.246377610073212  0.0000
  O2     O2        0.990474209760640    0.028443473114764    0.759031181157533  0.0000
  O2     O2        0.481358005899890    0.992868846867345    0.739998722749890  0.0000
  O2     O2        0.596753171066604    0.188513674919227    0.097451731621146  0.0000
  O3     O3        0.920781735051460    0.792271240077850    0.106136752088872  0.0000
  O2     O2        0.408907400745399    0.203774206951775    0.894043989175126  0.0000
  O3     O3        0.075524964729595    0.782167143470137    0.873655335531897  0.0000
  O2     O2        0.369898345915444    0.865078401357607    0.878496870070824  0.0000
  O3     O3        0.128267409434224    0.101553639691649    0.872683908691184  0.0000
  O2     O2        0.622200690559571    0.844804516437432    0.112591824783346  0.0000
  O2     O2        0.870293762640059    0.110886033520844    0.086229966018268  0.0000
  O2     O2        0.498989456113662    0.954564209491619    0.992937219175360  0.0000
  O2     O2        0.012450041049165    0.042791097787904    0.010174142753136  0.0000
  O2     O2        0.141923589607841    0.481622895287785    0.273564154852038  0.0000
  O2     O2        0.368006538044606    0.533075224347859    0.297467203648276  0.0000
  O2     O2        0.857441460980802    0.489068585167430    0.682022955288503  0.0000
  O2     O2        0.630202771463249    0.522407785143265    0.691203569774995  0.0000
  O2     O2        0.263716729908025    0.280664269767441    0.323925785811294  0.0000
  O2     O2        0.243837055414160    0.738249561914026    0.314216211808089  0.0000
  O2     O2        0.736226798783048    0.274181806309003    0.665134915081869  0.0000
  O2     O2        0.750325430187342    0.738230692759688    0.674514713779121  0.0000
  O3     O3        0.163708403379550    0.194230119731087    0.138723567876351  0.0000
  O2     O2        0.333564788762602    0.770436887663398    0.115645978873289  0.0000
  O2     O2        0.837855142991388    0.235712957351947    0.854034360126103  0.0000
  O2     O2        0.659713553736093    0.764079645508748    0.872165544876893  0.0000
  O3     O3        0.859384590734214    0.738246754637934    0.858652602811754  0.0000
  O2     O2        0.638414597912680    0.264006445977037    0.861226086587201  0.0000
  O3     O3        0.137060898186933    0.755038163360545    0.124573713173325  0.0000
  O2     O2        0.356529997235757    0.278074364495629    0.124495602321565  0.0000
  O2     O2        0.631779199490525    0.513330629687380    0.040900375627969  0.0000
  O3     O3        0.873184927082926    0.455919337526620    0.039594145331054  0.0000
  O2     O2        0.368281767740555    0.527528667656602    0.944690335357852  0.0000
  O1     O1        0.119395749041645    0.454899591162377    0.958708396737608  0.0000
  O2     O2        0.742368492201933    0.277862855454743    0.049504355517847  0.0000
  O3     O3        0.757356847727492    0.712766735946038    0.067763023843737  0.0000
  O3     O3        0.260673238078613    0.283914101146960    0.927521130843936  0.0000
  O3     O3        0.238194976094597    0.706768126894693    0.919258811232566  0.0000
