data_c00775.vasp
_audit_creation_method             Generated by GULP
_audit_author_name                 Salvador R. G. Balestra
_symmetry_space_group_name_H-M     'P 1             '
_symmetry_Int_Tables_number        1

loop_
_symmetry_equiv_pos_site_id
_symmetry_equiv_pos_as_xyz
_cell_length_a                       16.7744
_cell_length_b                        7.5445
_cell_length_c                       10.5762
_cell_angle_alpha                   90.5209
_cell_angle_beta                    90.2904
_cell_angle_gamma                   90.3885

loop_
_atom_site_label
_atom_site_type_symbol
_atom_site_fract_x
_atom_site_fract_y
_atom_site_fract_z
_atom_site_charge
  Ge     Ge        0.556730000000016    0.000000000000000    0.122129999999970  0.0000
  Ge     Ge        0.942916333767847    0.029030584460626    0.117823772638416  0.0000
  Ge     Ge        0.442758758605200    0.001491934044371    0.878367754816568  0.0000
  Ge     Ge        0.677649026839984    0.275287270833680    0.018739653963496  0.0000
  Si     Si        0.043864394845124    0.019508174770020    0.374185278320493  0.0000
  Si     Si        0.447675073486498    0.005090886390788    0.370988495987749  0.0000
  Si     Si        0.950788445747869    0.023497895751758    0.633738964089648  0.0000
  Si     Si        0.546232731027205    0.999047499638014    0.626511394024427  0.0000
  Si     Si        0.053162535161845    0.001687418510414    0.882724396841283  0.0000
  Si     Si        0.144891858378347    0.327491647403418    0.281163038941380  0.0000
  Si     Si        0.346079270698277    0.694097057447230    0.277225416191309  0.0000
  Si     Si        0.850226832177996    0.338042781013597    0.719288736291452  0.0000
  Si     Si        0.645956558858586    0.690609142543589    0.722394461391386  0.0000
  Si     Si        0.829262015762906    0.742793716041094    0.719386409179711  0.0000
  Si     Si        0.668795059433281    0.280964473469654    0.719599552354777  0.0000
  Si     Si        0.162573645019587    0.734861482490617    0.276061031708612  0.0000
  Si     Si        0.329343206087508    0.285184568854321    0.280707102340801  0.0000
  Si     Si        0.826112433362801    0.750974676966040    0.012690614861092  0.0000
  Si     Si        0.325783711936000    0.275669680588686    0.988539583417262  0.0000
  Si     Si        0.165551926813898    0.724991090906376    0.981722141381146  0.0000
  Si     Si        0.350324225314539    0.677638313878624    0.984595350040257  0.0000
  Si     Si        0.140669527537387    0.325885718518135    0.989458763857281  0.0000
  Si     Si        0.641141681600182    0.674733222035535    0.012873074645457  0.0000
  Si     Si        0.860785686367220    0.359255061206825    0.016031852120115  0.0000
  O2     O2        0.085250225064381    0.213594244884461    0.366878257962429  0.0000
  O2     O2        0.406599865408358    0.810769949295343    0.361895515472744  0.0000
  O2     O2        0.913657506048695    0.220493332643619    0.641970812730193  0.0000
  O2     O2        0.584749531512559    0.802910226699378    0.637792720787390  0.0000
  O2     O2        0.878639082745736    0.880403373257542    0.634677763260619  0.0000
  O2     O2        0.615977384134759    0.147622863346949    0.633577610361090  0.0000
  O2     O2        0.112077822941220    0.870539919042109    0.359950243093453  0.0000
  O2     O2        0.378811439748889    0.155354354113600    0.370957595172274  0.0000
  O2     O2        0.000658348760258    0.001428415166071    0.507076501526862  0.0000
  O2     O2        0.501177789910916    0.015550838615146    0.494732997273478  0.0000
  O3     O3        0.978077713739552    0.992861988024000    0.266456449422607  0.0000
  O3     O3        0.506176021564503    0.042305462049124    0.257041878346045  0.0000
  O2     O2        0.011090418455665    0.986268071609949    0.748081852350342  0.0000
  O3     O3        0.479555112925167    0.030417047425619    0.730474417576975  0.0000
  O1     O1        0.642867369812096    0.122471806774326    0.120369778022122  0.0000
  O3     O3        0.854801405948145    0.907240661573613    0.102285785080317  0.0000
  O3     O3        0.358870169992548    0.133112846493464    0.894046462734519  0.0000
  O2     O2        0.127609390617069    0.866118316752475    0.887101269643569  0.0000
  O3     O3        0.411896638883245    0.783639854510096    0.901046125511301  0.0000
  O2     O2        0.082746900458126    0.205052108423225    0.903544211305476  0.0000
  O3     O3        0.582081494369588    0.779517184358816    0.102961223902324  0.0000
  O3     O3        0.926711469699755    0.251762238721241    0.091430303704424  0.0000
  O1     O1        0.506956168824960    0.074779622963893    0.991363539957968  0.0000
  O3     O3        0.998583450936145    0.940660431313769    0.997046573353696  0.0000
  O2     O2        0.132487300239768    0.535924382725357    0.306100655877591  0.0000
  O2     O2        0.359000649151213    0.486872253688847    0.304734531726924  0.0000
  O2     O2        0.864057736604971    0.546397614141165    0.693325481721833  0.0000
  O2     O2        0.633817383477872    0.479724924025178    0.704325091621262  0.0000
  O2     O2        0.235529640413615    0.272493696090863    0.311795120679780  0.0000
  O2     O2        0.255967295703189    0.750568926387368    0.310562657320785  0.0000
  O2     O2        0.761080518076632    0.282217060793543    0.675186603614383  0.0000
  O2     O2        0.735707063770763    0.745348594718686    0.683257242551010  0.0000
  O2     O2        0.121573608472980    0.280903946893931    0.135842205721528  0.0000
  O2     O2        0.365938135898987    0.735726462790817    0.131139142369584  0.0000
  O2     O2        0.862032749412958    0.301367752754161    0.867758184193326  0.0000
  O2     O2        0.626099443316218    0.741126623657161    0.867990068177406  0.0000
  O2     O2        0.837022777560375    0.802550276676123    0.865404715636504  0.0000
  O3     O3        0.667000359918372    0.211910251879647    0.861436143718286  0.0000
  O2     O2        0.151422090056733    0.780586327889750    0.128239495102615  0.0000
  O2     O2        0.342749692064492    0.225364176303441    0.135353410584980  0.0000
  O3     O3        0.623828060047437    0.470173496823822    0.029484112597708  0.0000
  O2     O2        0.875634293868278    0.569475013391671    0.034820261779853  0.0000
  O2     O2        0.365024040725151    0.468915363759113    0.965182968309699  0.0000
  O2     O2        0.125177401276227    0.531653964811321    0.959173967609591  0.0000
  O3     O3        0.774580696019035    0.306490783043105    0.066373357709332  0.0000
  O2     O2        0.734043176260807    0.712011241329936    0.043363245363889  0.0000
  O2     O2        0.231778708216834    0.282606463786946    0.962923409531091  0.0000
  O2     O2        0.258905860202872    0.721308118313595    0.950596939889991  0.0000
