data_c00798.vasp
_audit_creation_method             Generated by GULP
_audit_author_name                 Salvador R. G. Balestra
_symmetry_space_group_name_H-M     'P 1             '
_symmetry_Int_Tables_number        1

loop_
_symmetry_equiv_pos_site_id
_symmetry_equiv_pos_as_xyz
_cell_length_a                       16.8293
_cell_length_b                        7.5709
_cell_length_c                       10.5118
_cell_angle_alpha                   89.1478
_cell_angle_beta                    89.8622
_cell_angle_gamma                   90.9159

loop_
_atom_site_label
_atom_site_type_symbol
_atom_site_fract_x
_atom_site_fract_y
_atom_site_fract_z
_atom_site_charge
  Ge     Ge        0.556730000000016    0.000000000000000    0.122129999999970  0.0000
  Ge     Ge        0.940537593688037    0.037873910306151    0.143254344829220  0.0000
  Ge     Ge        0.855040973810264    0.352368732087205    0.728100033655733  0.0000
  Ge     Ge        0.821448017046796    0.757937673907453    0.035846762559569  0.0000
  Si     Si        0.052858394449786    0.019878293639475    0.391157522053975  0.0000
  Si     Si        0.456143760582003    0.016051134069440    0.378170534306073  0.0000
  Si     Si        0.955715132830193    0.042138765676903    0.645180119918081  0.0000
  Si     Si        0.547016405180227    0.013872419793048    0.641687321243762  0.0000
  Si     Si        0.441718267553446    0.030094894328179    0.887894584361380  0.0000
  Si     Si        0.051176705649333    0.019019488250852    0.902465750382474  0.0000
  Si     Si        0.155254551626950    0.330460430683008    0.296059186069946  0.0000
  Si     Si        0.351535439356333    0.708749896528844    0.285170723057146  0.0000
  Si     Si        0.648970175985486    0.702100472331111    0.730943027531544  0.0000
  Si     Si        0.829934376806264    0.767498917529867    0.736163888500618  0.0000
  Si     Si        0.669786312078504    0.300091926740928    0.720405115000188  0.0000
  Si     Si        0.168066296899955    0.736929716093058    0.292425551126070  0.0000
  Si     Si        0.338445404067949    0.301501433490180    0.284853776787287  0.0000
  Si     Si        0.674670934751654    0.282366542343992    0.017968611064155  0.0000
  Si     Si        0.331178352994751    0.306892483668163    0.989078540638915  0.0000
  Si     Si        0.164967202584032    0.738517030976480    0.996463782065889  0.0000
  Si     Si        0.349219365809271    0.708465586406696    0.990287497767459  0.0000
  Si     Si        0.147076641479598    0.337123996368966    0.000864095338227  0.0000
  Si     Si        0.638998173425106    0.670094466184344    0.028825325546505  0.0000
  Si     Si        0.858441742486016    0.359541979830370    0.025431511009048  0.0000
  O2     O2        0.097217149751341    0.210955675913658    0.383456842066457  0.0000
  O2     O2        0.412525281185039    0.825165621791872    0.366217367634224  0.0000
  O3     O3        0.922958853243687    0.239145569532387    0.637917063177910  0.0000
  O2     O2        0.586607211852566    0.821831992606621    0.654293377444036  0.0000
  O2     O2        0.878687046171742    0.911495834876164    0.651213808697386  0.0000
  O2     O2        0.615580974276735    0.164680401098811    0.641159786295648  0.0000
  O2     O2        0.118156554053812    0.866938079710582    0.378812567551104  0.0000
  O2     O2        0.390766067915865    0.169488629458376    0.368096268504543  0.0000
  O2     O2        0.009723048039314    0.998032887367955    0.525345102943941  0.0000
  O2     O2        0.498682031905143    0.025515923490780    0.512387075498941  0.0000
  O3     O3        0.986881763797798    0.002053057750393    0.284616940063194  0.0000
  O3     O3        0.522017476854070    0.043206944999437    0.270676065892572  0.0000
  O2     O2        0.010961934451349    0.009433041200632    0.766762457130033  0.0000
  O2     O2        0.484661102108627    0.047338987976012    0.753559300150764  0.0000
  O3     O3        0.644824795975909    0.120014875718258    0.102267659831245  0.0000
  O1     O1        0.856961123534305    0.906669809417094    0.140712108189395  0.0000
  O2     O2        0.370448376156184    0.171000628649539    0.893693566859390  0.0000
  O2     O2        0.122966533004840    0.879362956660762    0.906103792214079  0.0000
  O2     O2        0.406550537043011    0.830359501141015    0.903445745993414  0.0000
  O2     O2        0.085443662617917    0.218253159367683    0.922797392976660  0.0000
  O3     O3        0.573020059721306    0.776900945573517    0.103479539596517  0.0000
  O3     O3        0.914522916256400    0.255599543239462    0.122348806581911  0.0000
  O3     O3        0.498287046474621    0.082104744910197    0.002360836298563  0.0000
  O3     O3        0.992693788700912    0.960257079877826    0.014194590625800  0.0000
  O2     O2        0.141028904207540    0.535664174866365    0.324468336504829  0.0000
  O2     O2        0.366425635435696    0.502261364777339    0.311831681191335  0.0000
  O3     O3        0.869253627477116    0.577911179668608    0.719987450420754  0.0000
  O2     O2        0.633695837927566    0.496044175180453    0.701291712272813  0.0000
  O2     O2        0.246132344505049    0.279264328080062    0.323467553555897  0.0000
  O2     O2        0.261628789111740    0.759013666959692    0.321183543252772  0.0000
  O3     O3        0.760243506776302    0.301362655419770    0.674712410046911  0.0000
  O2     O2        0.738390004422319    0.755592581547389    0.688008079952764  0.0000
  O2     O2        0.133008776424319    0.290176166338521    0.149768639762266  0.0000
  O2     O2        0.368736778630431    0.754266135219188    0.136849368186461  0.0000
  O3     O3        0.873081818424740    0.288068601310451    0.883734849572830  0.0000
  O2     O2        0.637453072201237    0.734535951085689    0.880782546833047  0.0000
  O3     O3        0.828052776559509    0.833075812672763    0.879822209003569  0.0000
  O2     O2        0.669666354009976    0.238729617105387    0.868216793213278  0.0000
  O2     O2        0.152200495103169    0.784685299278297    0.144716748049565  0.0000
  O2     O2        0.348424534719434    0.255565156600412    0.136261847275886  0.0000
  O2     O2        0.623175785498964    0.459301200876976    0.042228073638844  0.0000
  O3     O3        0.875828713732765    0.564923336977173    0.039062000103798  0.0000
  O2     O2        0.365763545386907    0.504164705896229    0.961607746461183  0.0000
  O2     O2        0.129463108938264    0.542263507881940    0.971873158319410  0.0000
  O2     O2        0.765058935941231    0.325251879229577    0.055782503013747  0.0000
  O3     O3        0.724759172879385    0.719180691113313    0.083098908635311  0.0000
  O2     O2        0.237292445030892    0.297329558626617    0.963227758169132  0.0000
  O2     O2        0.257715303754243    0.747978061347714    0.962114949171599  0.0000
