data_c00747.vasp
_audit_creation_method             Generated by GULP
_audit_author_name                 Salvador R. G. Balestra
_symmetry_space_group_name_H-M     'P 1             '
_symmetry_Int_Tables_number        1

loop_
_symmetry_equiv_pos_site_id
_symmetry_equiv_pos_as_xyz
_cell_length_a                       17.1810
_cell_length_b                        7.6172
_cell_length_c                       10.2555
_cell_angle_alpha                   90.0532
_cell_angle_beta                    90.9577
_cell_angle_gamma                   90.3534

loop_
_atom_site_label
_atom_site_type_symbol
_atom_site_fract_x
_atom_site_fract_y
_atom_site_fract_z
_atom_site_charge
  Ge     Ge        0.052090000000021    0.000000000000000    0.372269999999958  0.0000
  Ge     Ge        0.667029473024418    0.279391610846253    0.031739350576070  0.0000
  Ge     Ge        0.825730634256972    0.753449980700261    0.029314292311237  0.0000
  Ge     Ge        0.853197674491094    0.339921084018866    0.036374470197829  0.0000
  Si     Si        0.448960431892661    0.993559234178230    0.374587442371342  0.0000
  Si     Si        0.943003718933511    0.011986173876089    0.623975430485403  0.0000
  Si     Si        0.546914526854414    0.991358729833836    0.637158539153314  0.0000
  Si     Si        0.550382164555628    0.994522546687358    0.124129920992945  0.0000
  Si     Si        0.948507764460247    0.027299730050203    0.115245645059366  0.0000
  Si     Si        0.438676548826499    0.012957870506651    0.884571432495989  0.0000
  Si     Si        0.050627359563073    0.004359013441785    0.871301653108941  0.0000
  Si     Si        0.158150322723583    0.304638821302100    0.281925434974313  0.0000
  Si     Si        0.344854273103837    0.691391459512779    0.282209744691140  0.0000
  Si     Si        0.844050280734098    0.320500776309296    0.726222054542933  0.0000
  Si     Si        0.649892187653476    0.680135393462911    0.714942707644616  0.0000
  Si     Si        0.829055239196831    0.719520006288989    0.715950634987168  0.0000
  Si     Si        0.661745284579124    0.281870054225911    0.723523033460367  0.0000
  Si     Si        0.164784072037411    0.710219711961893    0.286577715948375  0.0000
  Si     Si        0.338186332217507    0.288768571591124    0.274638160074133  0.0000
  Si     Si        0.330948555601688    0.300839135839480    0.970641486286303  0.0000
  Si     Si        0.159153087285696    0.716210515685241    0.984470993222451  0.0000
  Si     Si        0.340046956551751    0.701013868604898    0.978988837260433  0.0000
  Si     Si        0.150519714255309    0.311776810969566    0.980120410559154  0.0000
  Si     Si        0.646627396023774    0.688375023111259    0.023216827613379  0.0000
  O3     O3        0.104763184111084    0.193416836906983    0.375671858776677  0.0000
  O2     O2        0.400193720783204    0.812123603944742    0.372091805623053  0.0000
  O2     O2        0.898157189501642    0.195573113207258    0.640008631561185  0.0000
  O2     O2        0.588487098057441    0.801495883496164    0.637636259502563  0.0000
  O2     O2        0.881267104715223    0.852785490901494    0.632995751122551  0.0000
  O2     O2        0.613932138250632    0.140890489549161    0.636258789799910  0.0000
  O3     O3        0.117041400272474    0.827777827788647    0.384361562121009  0.0000
  O2     O2        0.390934675652296    0.157308571146566    0.358031211468754  0.0000
  O3     O3        0.979477117823525    0.004151773912644    0.482868138693717  0.0000
  O2     O2        0.492987782737394    0.011357733640766    0.511107857360121  0.0000
  O3     O3        0.007976323822825    0.966166402075465    0.223046751994216  0.0000
  O2     O2        0.512770601469279    0.991494351311284    0.264324342784549  0.0000
  O2     O2        0.015557823935568    0.994226289802888    0.725596376298135  0.0000
  O2     O2        0.491333540066077    0.013239337327851    0.759289808806633  0.0000
  O3     O3        0.619161506013995    0.134924557458711    0.130297723887113  0.0000
  O3     O3        0.869022108093997    0.915613430442716    0.119242229642617  0.0000
  O2     O2        0.375850745924228    0.170171899129677    0.875441353565098  0.0000
  O2     O2        0.111130053799982    0.845150362534163    0.890705393514455  0.0000
  O2     O2        0.393408493812390    0.826939661300019    0.892872703155166  0.0000
  O2     O2        0.094358251444704    0.191771946978918    0.890632861924629  0.0000
  O2     O2        0.579072974829435    0.798745473211566    0.090730347645806  0.0000
  O3     O3        0.924907674894846    0.229956727045219    0.124197385216608  0.0000
  O2     O2        0.489984655584868    0.055531159329574    0.012390549670162  0.0000
  O2     O2        0.981200240042760    0.981760105494424    0.971570278093620  0.0000
  O2     O2        0.140356723421075    0.508253413919620    0.305682853439191  0.0000
  O2     O2        0.364459971126194    0.487792078252193    0.307906732398630  0.0000
  O2     O2        0.849207288215272    0.520352473450336    0.673066774243790  0.0000
  O2     O2        0.641890151873296    0.477294467185672    0.669784848767051  0.0000
  O2     O2        0.248388198661701    0.261296115414162    0.312132996756646  0.0000
  O2     O2        0.256278439800229    0.732137394912363    0.318082591360274  0.0000
  O2     O2        0.754735076164854    0.251790364428080    0.717354318704473  0.0000
  O2     O2        0.737070306931280    0.751888257839883    0.689342550389203  0.0000
  O2     O2        0.138109599224168    0.255985753461899    0.130619495815222  0.0000
  O2     O2        0.358818199149463    0.738956269975150    0.130974253928794  0.0000
  O3     O3        0.875221181413741    0.317412051044153    0.872690743424021  0.0000
  O2     O2        0.631791968090024    0.685949453186154    0.867503390356762  0.0000
  O3     O3        0.848603360589089    0.750199914183026    0.866308154996701  0.0000
  O3     O3        0.637024998225986    0.253732014100571    0.871271337266680  0.0000
  O2     O2        0.148036619815355    0.767130179246949    0.136002883792488  0.0000
  O2     O2        0.347694044880724    0.250721057974474    0.121257223580587  0.0000
  O3     O3        0.648598179323946    0.494031296576147    0.078454878730980  0.0000
  O1     O1        0.852241987096241    0.550893816880247    0.088003740712494  0.0000
  O2     O2        0.359471892393297    0.499673921320672    0.944033938550358  0.0000
  O2     O2        0.129353605121052    0.516510598955659    0.960017496564948  0.0000
  O1     O1        0.763680741576828    0.243281646906517    0.052753463382982  0.0000
  O3     O3        0.727824554654758    0.786805284043950    0.048504294464513  0.0000
  O2     O2        0.239302884693799    0.281371665660239    0.939800761761884  0.0000
  O2     O2        0.249416343166685    0.736166386747904    0.948231507243910  0.0000
