data_c00771.vasp
_audit_creation_method             Generated by GULP
_audit_author_name                 Salvador R. G. Balestra
_symmetry_space_group_name_H-M     'P 1             '
_symmetry_Int_Tables_number        1

loop_
_symmetry_equiv_pos_site_id
_symmetry_equiv_pos_as_xyz
_cell_length_a                       16.9376
_cell_length_b                        7.5589
_cell_length_c                       10.4723
_cell_angle_alpha                   90.2204
_cell_angle_beta                    90.9288
_cell_angle_gamma                   89.6330

loop_
_atom_site_label
_atom_site_type_symbol
_atom_site_fract_x
_atom_site_fract_y
_atom_site_fract_z
_atom_site_charge
  Ge     Ge        0.556730000000016    0.000000000000000    0.122129999999970  0.0000
  Ge     Ge        0.943396034990812    0.980309998655601    0.111679395518857  0.0000
  Ge     Ge        0.437977869219268    0.993598924839965    0.879894461720085  0.0000
  Ge     Ge        0.166299074516117    0.263193780144046    0.281735769168188  0.0000
  Si     Si        0.046436193109190    0.985949821805721    0.372972657460356  0.0000
  Si     Si        0.453304573979449    0.000583686675802    0.368010445348381  0.0000
  Si     Si        0.946591020754756    0.970685832312790    0.624593318567759  0.0000
  Si     Si        0.546481127920499    0.996837556586527    0.629771991775260  0.0000
  Si     Si        0.050619908747748    0.987283541269083    0.872175771347871  0.0000
  Si     Si        0.331278569420079    0.719837964232497    0.269287890353049  0.0000
  Si     Si        0.827911364210555    0.257132771316190    0.720006663064954  0.0000
  Si     Si        0.666233633596063    0.714232161483378    0.715232023962464  0.0000
  Si     Si        0.848201159726459    0.662958019873280    0.718732266677104  0.0000
  Si     Si        0.646837503564202    0.308415780372240    0.716587520793936  0.0000
  Si     Si        0.149170340226560    0.678599703984953    0.281599246975380  0.0000
  Si     Si        0.351407305672292    0.309590871551765    0.269670759443960  0.0000
  Si     Si        0.643018068974350    0.324697616975141    0.013157531747242  0.0000
  Si     Si        0.854486207076186    0.653663729909399    0.014269766005624  0.0000
  Si     Si        0.345328882896050    0.318565143146833    0.972895269361138  0.0000
  Si     Si        0.139204328496749    0.667017830812337    0.984522276574256  0.0000
  Si     Si        0.320824351366274    0.718423592190851    0.972716807259441  0.0000
  Si     Si        0.162264499143048    0.264903684660830    0.978736848133589  0.0000
  Si     Si        0.672348914278083    0.721628890929096    0.011682469066975  0.0000
  Si     Si        0.824337997308297    0.257393989915000    0.017192054612821  0.0000
  O3     O3        0.113935638332052    0.132712551257937    0.383355064681667  0.0000
  O2     O2        0.384320634292530    0.855218493611361    0.350635068605782  0.0000
  O2     O2        0.878677795538636    0.120057120973786    0.637306226053306  0.0000
  O2     O2        0.616687587664423    0.849655943940432    0.626698067977906  0.0000
  O2     O2        0.907134469198544    0.777199710616548    0.633523955826741  0.0000
  O2     O2        0.585226706937583    0.192077221008392    0.634031767272200  0.0000
  O2     O2        0.090498394741896    0.796054822506876    0.366018702683554  0.0000
  O2     O2        0.417475172730657    0.197753966817361    0.347113943343206  0.0000
  O2     O2        0.986013938257683    0.988224670810307    0.488186647069129  0.0000
  O2     O2        0.488493340985133    0.983218693020807    0.509270684484890  0.0000
  O3     O3        0.996446989438909    0.027685315549807    0.245737358031671  0.0000
  O3     O3        0.524966045884501    0.968617260956032    0.274350965869437  0.0000
  O2     O2        0.015337988819913    0.995633159784904    0.730034987078525  0.0000
  O3     O3        0.493245072196154    0.956289507845696    0.749295303009412  0.0000
  O3     O3        0.581421826105019    0.219122719413412    0.095090907429647  0.0000
  O3     O3        0.914617877818209    0.761368800160357    0.102357351257819  0.0000
  O3     O3        0.403285215918619    0.209740287385224    0.884671134421814  0.0000
  O2     O2        0.078170657153879    0.785444359379508    0.902658539885364  0.0000
  O3     O3        0.355919553535469    0.856772153933540    0.877807970615857  0.0000
  O2     O2        0.123549573599427    0.124562265000251    0.881313691474895  0.0000
  O3     O3        0.640153798799745    0.870326647895237    0.102848873064576  0.0000
  O3     O3        0.859487074840469    0.112994852494902    0.110090929453692  0.0000
  O1     O1        0.487878291010198    0.930955614843059    0.014468828703120  0.0000
  O3     O3        0.989572200517555    0.050682906120422    0.976197598640210  0.0000
  O3     O3        0.136080697527738    0.476933351398410    0.312493474957053  0.0000
  O2     O2        0.361606676987900    0.519602923076963    0.294143809134049  0.0000
  O2     O2        0.860199255465538    0.454245889060140    0.693100530199667  0.0000
  O2     O2        0.634106585241908    0.516139067623817    0.688783590421669  0.0000
  O3     O3        0.266154180634619    0.248889057421679    0.313652612282181  0.0000
  O2     O2        0.239940511882751    0.735678684243220    0.310363598417505  0.0000
  O2     O2        0.735538534017587    0.249734876456653    0.679842532057482  0.0000
  O2     O2        0.758722717647691    0.720338868325793    0.682144694127583  0.0000
  O3     O3        0.150770030980889    0.204176629526596    0.123858792883039  0.0000
  O2     O2        0.336855443786893    0.772211817836319    0.120872593459192  0.0000
  O2     O2        0.834782112610172    0.204500805177995    0.868310191284604  0.0000
  O2     O2        0.656833041064999    0.771691437059102    0.862846487861474  0.0000
  O2     O2        0.869126870635846    0.705786944612004    0.866377235982498  0.0000
  O2     O2        0.628632999964892    0.269789953773520    0.864594146614036  0.0000
  O2     O2        0.126953635484089    0.716787139617896    0.132962921809468  0.0000
  O2     O2        0.364535183473810    0.265897814695326    0.120239301533058  0.0000
  O2     O2        0.629414933893519    0.533684692693929    0.034529392577754  0.0000
  O2     O2        0.867843807838294    0.445845427123376    0.038442468371621  0.0000
  O2     O2        0.359716410941225    0.525418011168165    0.949736899469886  0.0000
  O2     O2        0.122224551737032    0.459549438742219    0.961696489172581  0.0000
  O2     O2        0.732506019975046    0.274827834959829    0.051086461423762  0.0000
  O2     O2        0.764716807606733    0.704797120079506    0.044448582084481  0.0000
  O2     O2        0.254130421332868    0.272671024375571    0.944926096477594  0.0000
  O2     O2        0.227545180506553    0.710270567305356    0.944521003310556  0.0000
