data_c00753.vasp
_audit_creation_method             Generated by GULP
_audit_author_name                 Salvador R. G. Balestra
_symmetry_space_group_name_H-M     'P 1             '
_symmetry_Int_Tables_number        1

loop_
_symmetry_equiv_pos_site_id
_symmetry_equiv_pos_as_xyz
_cell_length_a                       17.0982
_cell_length_b                        7.6284
_cell_length_c                       10.2990
_cell_angle_alpha                   90.5410
_cell_angle_beta                    90.1912
_cell_angle_gamma                   89.6863

loop_
_atom_site_label
_atom_site_type_symbol
_atom_site_fract_x
_atom_site_fract_y
_atom_site_fract_z
_atom_site_charge
  Ge     Ge        0.052090000000021    0.000000000000000    0.372269999999958  0.0000
  Ge     Ge        0.669899156737723    0.277981266493727    0.037344182230002  0.0000
  Ge     Ge        0.170459183121600    0.698746856995171    0.980561222051457  0.0000
  Ge     Ge        0.359044358554915    0.657137540536751    0.983310242255353  0.0000
  Si     Si        0.450834924719883    0.982057438682581    0.383460952400991  0.0000
  Si     Si        0.948427602708099    0.003993024006754    0.631163663568380  0.0000
  Si     Si        0.551170882272227    0.996021542739420    0.641690617277381  0.0000
  Si     Si        0.559384299942020    0.994096641687648    0.135463335702605  0.0000
  Si     Si        0.949554691473770    0.993496504997327    0.108489213892769  0.0000
  Si     Si        0.451073518384164    0.979124806019728    0.893048530471764  0.0000
  Si     Si        0.060616489558392    0.986791167713736    0.870586395104879  0.0000
  Si     Si        0.157244017233283    0.305700669392617    0.292529129909981  0.0000
  Si     Si        0.351828635179519    0.673745361145214    0.293383151470459  0.0000
  Si     Si        0.844511665419513    0.310903217749061    0.726053488635194  0.0000
  Si     Si        0.655670254504606    0.690734694292716    0.734642753295936  0.0000
  Si     Si        0.835012823333566    0.711732777283136    0.730097982206834  0.0000
  Si     Si        0.665409178948581    0.283905990444681    0.729485460843891  0.0000
  Si     Si        0.171118110449608    0.712493485948071    0.287203183221932  0.0000
  Si     Si        0.337342942927949    0.272433740777385    0.297830108776743  0.0000
  Si     Si        0.835341882012811    0.707691130645599    0.033885805427816  0.0000
  Si     Si        0.337430806890763    0.257090761245676    0.994205249446400  0.0000
  Si     Si        0.154867098705429    0.294389004203494    0.993826418204578  0.0000
  Si     Si        0.654419830987038    0.681607496562870    0.036028906758733  0.0000
  Si     Si        0.852606833327424    0.313147934249473    0.031850649208642  0.0000
  O3     O3        0.098499203475074    0.200841012723687    0.381793382851213  0.0000
  O2     O2        0.407634802252097    0.794678554140541    0.382898987904376  0.0000
  O2     O2        0.903287644456304    0.189352549262768    0.644592823299453  0.0000
  O2     O2        0.596587140076716    0.810520285714306    0.652818858450111  0.0000
  O2     O2        0.888013745906558    0.845754971038358    0.652333965102371  0.0000
  O2     O2        0.612152453626454    0.156669066537017    0.641267121378596  0.0000
  O3     O3        0.122106771224937    0.835978401598569    0.382093437680672  0.0000
  O2     O2        0.386590244492961    0.138155865886064    0.385287902115430  0.0000
  O3     O3        0.981555341020618    0.985832345795122    0.488491784737922  0.0000
  O2     O2        0.504851393262511    0.997353333980993    0.508213923778759  0.0000
  O3     O3        0.005068514696665    0.965841937992595    0.227468340412599  0.0000
  O2     O2        0.505155861030927    0.001884626371540    0.259213941391713  0.0000
  O2     O2        0.021840845530567    0.998146398766900    0.729100025366024  0.0000
  O2     O2        0.488378424731090    0.022756351878681    0.755395737198310  0.0000
  O3     O3        0.625652244547081    0.139420112975866    0.143573716336995  0.0000
  O2     O2        0.877881798862962    0.856296094778371    0.118189276837603  0.0000
  O2     O2        0.371745692046144    0.094036550611212    0.912220160423792  0.0000
  O3     O3        0.122777417511636    0.831374604554301    0.871855762501098  0.0000
  O3     O3        0.427844531039832    0.777041786694567    0.900502898994683  0.0000
  O2     O2        0.103578993738953    0.169802030675323    0.902243321056694  0.0000
  O2     O2        0.599675099202168    0.802868281495820    0.125330168790731  0.0000
  O2     O2        0.916141641106610    0.192511236386105    0.104601134100778  0.0000
  O2     O2        0.510719367009210    0.038720389453449    0.005681570366196  0.0000
  O2     O2        0.995004992473382    0.945259122842562    0.976641595938572  0.0000
  O2     O2        0.140774022123785    0.512774009345160    0.298709206434000  0.0000
  O2     O2        0.369496383196780    0.469007999414127    0.321222199035101  0.0000
  O2     O2        0.864158043108497    0.513971906171627    0.698412144642031  0.0000
  O2     O2        0.636538516561828    0.485254636319452    0.714245966831586  0.0000
  O2     O2        0.246254709244320    0.263715081109247    0.336784536737734  0.0000
  O2     O2        0.262159765585170    0.718022897358647    0.327780002493753  0.0000
  O2     O2        0.755561577919904    0.270073892866767    0.683485348261333  0.0000
  O2     O2        0.744073754406906    0.731170189480068    0.689143295924939  0.0000
  O2     O2        0.143566183793775    0.237630901612956    0.144049876152091  0.0000
  O3     O3        0.367943659647813    0.716895736230761    0.144822143843550  0.0000
  O2     O2        0.854666287064211    0.270695599937572    0.878087062644644  0.0000
  O2     O2        0.644572626047193    0.740048187581514    0.886082210499243  0.0000
  O2     O2        0.841866684452444    0.753848158135109    0.882439321170512  0.0000
  O3     O3        0.660069476425318    0.219242459983986    0.876316763165043  0.0000
  O3     O3        0.163397576514945    0.774815973384962    0.138977098944542  0.0000
  O2     O2        0.346185669905540    0.218145495245000    0.147344548706917  0.0000
  O3     O3        0.629264342611397    0.484392848912462    0.055792241068813  0.0000
  O2     O2        0.874115949263576    0.516877986076355    0.059156745572834  0.0000
  O3     O3        0.380616137372883    0.436517325090091    0.962237513661767  0.0000
  O3     O3        0.129224023135769    0.492197683287725    0.972403065745746  0.0000
  O3     O3        0.766819049518658    0.275962582532659    0.082950516540626  0.0000
  O2     O2        0.745100644495670    0.703648870394697    0.076656484847971  0.0000
  O2     O2        0.246384954774623    0.278041949157360    0.957178755535822  0.0000
  O1     O1        0.265882908650627    0.695603849419962    0.932606485142524  0.0000
