data_c00796.vasp
_audit_creation_method             Generated by GULP
_audit_author_name                 Salvador R. G. Balestra
_symmetry_space_group_name_H-M     'P 1             '
_symmetry_Int_Tables_number        1

loop_
_symmetry_equiv_pos_site_id
_symmetry_equiv_pos_as_xyz
_cell_length_a                       16.9165
_cell_length_b                        7.5904
_cell_length_c                       10.4682
_cell_angle_alpha                   88.7486
_cell_angle_beta                    89.3359
_cell_angle_gamma                   90.7482

loop_
_atom_site_label
_atom_site_type_symbol
_atom_site_fract_x
_atom_site_fract_y
_atom_site_fract_z
_atom_site_charge
  Ge     Ge        0.556730000000016    0.000000000000000    0.122129999999970  0.0000
  Ge     Ge        0.939569318445538    0.029848441001887    0.120416560134498  0.0000
  Ge     Ge        0.857425790056523    0.362909185583962    0.709945904950863  0.0000
  Ge     Ge        0.666711124107971    0.304772887780498    0.706581201700590  0.0000
  Si     Si        0.047599144422706    0.014827380696002    0.370435940980000  0.0000
  Si     Si        0.448539785872931    0.008969014142932    0.372337448745394  0.0000
  Si     Si        0.956140623256108    0.049822644889501    0.630287470898953  0.0000
  Si     Si        0.544385625288330    0.022477554814263    0.627380063684265  0.0000
  Si     Si        0.444600128966523    0.031473901855713    0.883174036410597  0.0000
  Si     Si        0.055677464322019    0.024171567407082    0.881537007869506  0.0000
  Si     Si        0.151409994167753    0.326817802017964    0.276684030955451  0.0000
  Si     Si        0.346327117618273    0.704349699466794    0.273826155830263  0.0000
  Si     Si        0.648054283877947    0.716236443660524    0.719225275468196  0.0000
  Si     Si        0.830835632655780    0.772869805774169    0.724135940911554  0.0000
  Si     Si        0.163576748118888    0.732365495147235    0.274638283943871  0.0000
  Si     Si        0.333478487477183    0.298696970554139    0.272839474731386  0.0000
  Si     Si        0.671473284072287    0.282020941083579    0.007664154995919  0.0000
  Si     Si        0.823447844475981    0.749580192532275    0.021647316937511  0.0000
  Si     Si        0.332206328556593    0.309757973651112    0.974799641562871  0.0000
  Si     Si        0.166450058372673    0.740469176635944    0.977402524978925  0.0000
  Si     Si        0.350078766455168    0.709327850767456    0.977247324960897  0.0000
  Si     Si        0.149396544371260    0.340561924415830    0.979258328536259  0.0000
  Si     Si        0.642607675612435    0.679492551170606    0.014919065500234  0.0000
  Si     Si        0.855139573210755    0.355708196536297    0.011741624876026  0.0000
  O2     O2        0.091257490904086    0.205532960672837    0.359625040199234  0.0000
  O2     O2        0.404632013873863    0.820230694568346    0.357806749661126  0.0000
  O3     O3        0.927056418145714    0.248870540654535    0.622712542092023  0.0000
  O2     O2        0.590259240284354    0.838051201908009    0.636644136004030  0.0000
  O2     O2        0.876478542131392    0.930046357499118    0.647700774271464  0.0000
  O3     O3        0.609184939529343    0.175841117693633    0.609850961622621  0.0000
  O2     O2        0.112678210631274    0.861762266834671    0.360121182783206  0.0000
  O2     O2        0.385359322605469    0.164891424633426    0.354909007587465  0.0000
  O2     O2        0.003992896544165    0.995367770210290    0.505577315267606  0.0000
  O2     O2        0.482991823736391    0.017341845944591    0.513032694406125  0.0000
  O3     O3        0.981755561352462    0.993607950038526    0.265158094768057  0.0000
  O3     O3        0.519956737996394    0.029165091406736    0.272816017965527  0.0000
  O2     O2        0.015006543501415    0.013883462450282    0.746385769178594  0.0000
  O2     O2        0.494414477133253    0.058955164040029    0.755089335910774  0.0000
  O3     O3        0.638939221550529    0.136866988217059    0.106226519810687  0.0000
  O3     O3        0.858015932770516    0.890053242741124    0.115465102504083  0.0000
  O2     O2        0.373961216754601    0.173433486691948    0.882879405936771  0.0000
  O2     O2        0.126737806439008    0.883449594320182    0.885567233806013  0.0000
  O2     O2        0.408306386639695    0.832487326177417    0.891608501717230  0.0000
  O2     O2        0.089966756721422    0.222622216347688    0.898443507605969  0.0000
  O3     O3        0.581685628162646    0.781681862347300    0.102386470355218  0.0000
  O3     O3        0.910533600729720    0.246277926083696    0.105676365685042  0.0000
  O3     O3        0.494355622183881    0.075640441626838    0.006198629700955  0.0000
  O3     O3        0.998084169793923    0.965950281764008    0.995640575999839  0.0000
  O2     O2        0.136428121006550    0.531126985670550    0.305791072534667  0.0000
  O2     O2        0.360730085125265    0.498160649403103    0.302490450676288  0.0000
  O3     O3        0.870054731031156    0.588430493285331    0.692539594508169  0.0000
  O3     O3        0.631168328292797    0.515997514511736    0.689441513141714  0.0000
  O2     O2        0.241088556125670    0.274943629760877    0.309719398629001  0.0000
  O2     O2        0.256105586216198    0.754060905021396    0.305861113632132  0.0000
  O1     O1        0.764263406620511    0.306902583704528    0.662624491962950  0.0000
  O2     O2        0.739057258617990    0.767399382101892    0.682577719600085  0.0000
  O2     O2        0.133608754245608    0.291162212280201    0.128273607294604  0.0000
  O2     O2        0.367128062691596    0.749956140407156    0.125559858511258  0.0000
  O3     O3        0.875698874729812    0.304510161986747    0.867472011871268  0.0000
  O2     O2        0.631673013517386    0.750509859748560    0.869286637681590  0.0000
  O2     O2        0.833635355193004    0.815001442928745    0.874354828991249  0.0000
  O3     O3        0.660143973313342    0.224850829374722    0.862279304881470  0.0000
  O2     O2        0.150288110902734    0.782625604086646    0.126027826220055  0.0000
  O2     O2        0.345121507433298    0.258347126360056    0.123503270046611  0.0000
  O2     O2        0.627249381967661    0.469819651495153    0.024006122317095  0.0000
  O2     O2        0.868487971444360    0.563053435447030    0.035464545040095  0.0000
  O2     O2        0.367453373875598    0.506237224739063    0.947538484201123  0.0000
  O2     O2        0.131725666417227    0.545475207841569    0.950063787024086  0.0000
  O2     O2        0.763581470964803    0.307270737099560    0.036388962027265  0.0000
  O2     O2        0.731481049387490    0.723465089784582    0.058445481830531  0.0000
  O2     O2        0.239697265001173    0.301858394087687    0.943064689815584  0.0000
  O2     O2        0.259468730119321    0.749913550016644    0.947146167868786  0.0000
