data_c00723.vasp
_audit_creation_method             Generated by GULP
_audit_author_name                 Salvador R. G. Balestra
_symmetry_space_group_name_H-M     'P 1             '
_symmetry_Int_Tables_number        1

loop_
_symmetry_equiv_pos_site_id
_symmetry_equiv_pos_as_xyz
_cell_length_a                       17.2658
_cell_length_b                        7.6531
_cell_length_c                       10.1826
_cell_angle_alpha                   90.3647
_cell_angle_beta                    90.2078
_cell_angle_gamma                   90.2914

loop_
_atom_site_label
_atom_site_type_symbol
_atom_site_fract_x
_atom_site_fract_y
_atom_site_fract_z
_atom_site_charge
  Ge     Ge        0.052090000000021    0.000000000000000    0.372269999999958  0.0000
  Ge     Ge        0.662813150930121    0.704473742665353    0.720219203414578  0.0000
  Ge     Ge        0.841848955230060    0.680686035182240    0.045314725958595  0.0000
  Ge     Ge        0.331429627949525    0.710880873183409    0.970306190321556  0.0000
  Si     Si        0.448923605404239    0.013809260588971    0.379132495654050  0.0000
  Si     Si        0.949984576414778    0.992947241449670    0.634402307455403  0.0000
  Si     Si        0.549772654554173    0.999803788332134    0.635820392403995  0.0000
  Si     Si        0.550968862842665    0.993293975596411    0.127922690892471  0.0000
  Si     Si        0.942839659827218    0.995477174278197    0.118691322667948  0.0000
  Si     Si        0.441400669905380    0.000571986673193    0.884965993397088  0.0000
  Si     Si        0.053752501764922    0.988618144310671    0.880613233289409  0.0000
  Si     Si        0.169017352460746    0.288619291877328    0.295139917426548  0.0000
  Si     Si        0.336577023974333    0.720778573572224    0.283191239089452  0.0000
  Si     Si        0.837474082127655    0.287688312301083    0.730594637815633  0.0000
  Si     Si        0.843488884279126    0.691320393188724    0.729441344284612  0.0000
  Si     Si        0.659298790709195    0.295427795202983    0.717469468020268  0.0000
  Si     Si        0.158510515302984    0.690835671323653    0.290243010784585  0.0000
  Si     Si        0.347460479635826    0.317378336148863    0.284087448210158  0.0000
  Si     Si        0.651737047441475    0.300334726990868    0.023398725918316  0.0000
  Si     Si        0.343162113467513    0.308409703414973    0.978313247297305  0.0000
  Si     Si        0.150052727022192    0.680135002457239    0.983320943534072  0.0000
  Si     Si        0.162989582715558    0.280461512105670    0.990383916593642  0.0000
  Si     Si        0.660873038722199    0.701649373281955    0.034072768310042  0.0000
  Si     Si        0.829741464239907    0.278955148349433    0.038422973950535  0.0000
  O3     O3        0.120921418914908    0.164254445383612    0.388465914631463  0.0000
  O2     O2        0.388290450431073    0.853660725903539    0.368955692134125  0.0000
  O2     O2        0.892677220699587    0.156548581873659    0.652970383745768  0.0000
  O3     O3        0.601135329769091    0.827733088331700    0.627094745662387  0.0000
  O2     O2        0.905012116078228    0.810179364544706    0.652319052099799  0.0000
  O2     O2        0.607962273760153    0.165010923685863    0.629005244755350  0.0000
  O3     O3        0.100132317227453    0.802944192586822    0.375331515411149  0.0000
  O2     O2        0.405465529999011    0.199197295273434    0.367866084465241  0.0000
  O3     O3        0.981648123885251    0.003093901430826    0.488866000916528  0.0000
  O2     O2        0.487024235984345    0.007773315876172    0.521486808064227  0.0000
  O3     O3        0.005170892921454    0.040121579151425    0.226707305243845  0.0000
  O2     O2        0.516622230507642    0.996971601613167    0.273101162842907  0.0000
  O2     O2        0.024028657213230    0.003273363109347    0.731681406977454  0.0000
  O2     O2        0.504426701195092    0.004060054985286    0.772655130610351  0.0000
  O2     O2        0.594221636542307    0.177421639588771    0.104181395796626  0.0000
  O3     O3        0.906612167852639    0.803614186784248    0.135808470843206  0.0000
  O2     O2        0.394871873602856    0.182311336192970    0.889074434024822  0.0000
  O2     O2        0.088857921220044    0.795703023499463    0.902969281110287  0.0000
  O3     O3        0.380169115893775    0.845779683176907    0.865154927157394  0.0000
  O2     O2        0.118113481803173    0.138867749468095    0.902387757353110  0.0000
  O2     O2        0.608560309812224    0.829648020324749    0.121465470021066  0.0000
  O2     O2        0.870650256522408    0.129307104677927    0.122455177157817  0.0000
  O2     O2        0.482479165405259    0.962922640842847    0.023961065107922  0.0000
  O2     O2        0.981596029489753    0.016463538666553    0.975788005198962  0.0000
  O2     O2        0.141175314331165    0.487339626111585    0.315033694448262  0.0000
  O2     O2        0.366170400235026    0.522452570918620    0.305525714348839  0.0000
  O2     O2        0.865338234098037    0.486903863384728    0.708635728460910  0.0000
  O3     O3        0.634173009353563    0.491287615032953    0.692960672146064  0.0000
  O2     O2        0.260038417172433    0.275823270112925    0.328798267970344  0.0000
  O2     O2        0.247253170340366    0.735955761937725    0.328505848719725  0.0000
  O2     O2        0.749323688919408    0.267160519627247    0.679000852484680  0.0000
  O3     O3        0.758306441520821    0.726741983538238    0.673534712256390  0.0000
  O2     O2        0.155475122185713    0.229769891959820    0.143290259272965  0.0000
  O3     O3        0.342406985496379    0.772568808964374    0.132106371191989  0.0000
  O2     O2        0.839595020669299    0.241658202704724    0.883735770201084  0.0000
  O3     O3        0.657854819864167    0.762370625015312    0.883762285479348  0.0000
  O3     O3        0.847311200265731    0.738038170609350    0.882495060866369  0.0000
  O2     O2        0.647173665281095    0.247545726133651    0.870561818309416  0.0000
  O2     O2        0.145482330568502    0.735667305438895    0.136523409038342  0.0000
  O2     O2        0.358129815456577    0.267579972172692    0.131557188060865  0.0000
  O2     O2        0.627766301845388    0.502491480932659    0.042049137557445  0.0000
  O3     O3        0.866103168608970    0.465751340113800    0.072338022956178  0.0000
  O3     O3        0.366987456365573    0.503459590832949    0.946150014317146  0.0000
  O2     O2        0.128691799699524    0.474356458016716    0.966571516678188  0.0000
  O2     O2        0.739055768820778    0.275429830547375    0.075666431350697  0.0000
  O3     O3        0.746813694858533    0.709873661723338    0.091437984652033  0.0000
  O2     O2        0.252384683234475    0.277749485985563    0.946930032966066  0.0000
  O3     O3        0.234748121023691    0.715736729446609    0.928896260279532  0.0000
