data_c00780.vasp
_audit_creation_method             Generated by GULP
_audit_author_name                 Salvador R. G. Balestra
_symmetry_space_group_name_H-M     'P 1             '
_symmetry_Int_Tables_number        1

loop_
_symmetry_equiv_pos_site_id
_symmetry_equiv_pos_as_xyz
_cell_length_a                       16.9286
_cell_length_b                        7.5617
_cell_length_c                       10.4944
_cell_angle_alpha                   89.8728
_cell_angle_beta                    89.8492
_cell_angle_gamma                   90.4868

loop_
_atom_site_label
_atom_site_type_symbol
_atom_site_fract_x
_atom_site_fract_y
_atom_site_fract_z
_atom_site_charge
  Ge     Ge        0.556730000000016    0.000000000000000    0.122129999999970  0.0000
  Ge     Ge        0.940639476445249    0.026936178149978    0.122926502508980  0.0000
  Ge     Ge        0.148784698954086    0.338944795243730    0.291495199641301  0.0000
  Ge     Ge        0.851666037959502    0.347465962686714    0.715572383147552  0.0000
  Si     Si        0.045172863515396    0.027255612765964    0.378139890152426  0.0000
  Si     Si        0.453694562693290    0.017806954229824    0.374722844731401  0.0000
  Si     Si        0.952609498910585    0.034595223535217    0.634327274741944  0.0000
  Si     Si        0.544321442027462    0.012307462249858    0.637907827274766  0.0000
  Si     Si        0.440704283074885    0.018656116697460    0.886695313063386  0.0000
  Si     Si        0.054410950025861    0.016673986305170    0.884593751074918  0.0000
  Si     Si        0.348823333343809    0.711437910248808    0.277101828894387  0.0000
  Si     Si        0.646502953885085    0.702951446879388    0.726579224522132  0.0000
  Si     Si        0.827845611620234    0.760748739664523    0.728684438349164  0.0000
  Si     Si        0.666957658911831    0.297186810300445    0.714662681160013  0.0000
  Si     Si        0.166498655511324    0.753504463923759    0.278968926637773  0.0000
  Si     Si        0.334334010186040    0.302819077764226    0.284612574432449  0.0000
  Si     Si        0.673508155285534    0.280045152545951    0.012337062560856  0.0000
  Si     Si        0.823211185858167    0.746844543704373    0.024617189668721  0.0000
  Si     Si        0.328897288655991    0.298353242647458    0.986456844504736  0.0000
  Si     Si        0.166255153760095    0.736752083697274    0.981742791887380  0.0000
  Si     Si        0.349137948577596    0.698237209606037    0.981606339464423  0.0000
  Si     Si        0.145518417517145    0.334928365868309    0.989531929233286  0.0000
  Si     Si        0.642295962490990    0.674098535337591    0.021866258702948  0.0000
  Si     Si        0.855203060890952    0.351055682890745    0.016375746613742  0.0000
  O3     O3        0.079905002804484    0.224796668037813    0.380581787382155  0.0000
  O2     O2        0.409606818061553    0.829146234849170    0.357265575900438  0.0000
  O3     O3        0.920233744299002    0.232393216248462    0.626821856746266  0.0000
  O2     O2        0.585887854996569    0.821198699829333    0.646054219534770  0.0000
  O2     O2        0.874666529490409    0.911131158428255    0.650420412456076  0.0000
  O2     O2        0.611194456070585    0.165354146738517    0.634942066107004  0.0000
  O2     O2        0.121320089001413    0.901489203980431    0.358806807464213  0.0000
  O2     O2        0.390672338255204    0.175765588520844    0.364524998923205  0.0000
  O2     O2        0.000246384831990    0.981811244433289    0.508545018279165  0.0000
  O2     O2        0.492729898779265    0.022388947544449    0.512110628902071  0.0000
  O3     O3        0.983062380234515    0.993419621209995    0.267337156666280  0.0000
  O3     O3        0.521823747358885    0.042014602424070    0.271384576332985  0.0000
  O2     O2        0.012866112043758    0.004702478641273    0.749515177253463  0.0000
  O2     O2        0.485121290725562    0.043846825485959    0.754503591230401  0.0000
  O3     O3        0.641098528620144    0.126676363199764    0.100196090429703  0.0000
  O3     O3        0.858269648429204    0.889780913608826    0.118229114741351  0.0000
  O2     O2        0.367901144311524    0.155580857440409    0.894407994976983  0.0000
  O2     O2        0.126040967063685    0.875799349323872    0.887754346897641  0.0000
  O2     O2        0.407622968935887    0.816952589932672    0.895826899548646  0.0000
  O2     O2        0.087630385036235    0.216563876997749    0.902899884054699  0.0000
  O3     O3        0.581242158538592    0.779163926941846    0.107611455638342  0.0000
  O3     O3        0.913480624434740    0.245533458914647    0.107450381639651  0.0000
  O3     O3        0.494485150423356    0.070397226595868    0.004730731532308  0.0000
  O3     O3        0.997735920798023    0.957658410430322    0.997919736797991  0.0000
  O3     O3        0.134361895727088    0.561157292707760    0.315119553404984  0.0000
  O2     O2        0.361966690112220    0.505542452211956    0.307124885194012  0.0000
  O3     O3        0.864915142910223    0.572224525300150    0.697630298125783  0.0000
  O2     O2        0.633953602727445    0.496139505237773    0.696291728146767  0.0000
  O3     O3        0.244449684889541    0.282793549323622    0.328861243835809  0.0000
  O2     O2        0.259515246588911    0.765024443243697    0.311534734677253  0.0000
  O3     O3        0.756751211140951    0.292357268145894    0.668308753152570  0.0000
  O2     O2        0.735685151692144    0.759684924667352    0.688601797020164  0.0000
  O3     O3        0.127813070194238    0.284587083135734    0.134938040798502  0.0000
  O2     O2        0.366375237697510    0.750429711895944    0.128274692504674  0.0000
  O3     O3        0.871494012041997    0.292030201009085    0.871810270031489  0.0000
  O2     O2        0.629525791124092    0.737869884165794    0.875666031849397  0.0000
  O2     O2        0.832431645314633    0.809491991774823    0.877914970036796  0.0000
  O2     O2        0.665652745839834    0.236163549777582    0.862304913429622  0.0000
  O2     O2        0.154381827758582    0.792321795875773    0.128864443657600  0.0000
  O2     O2        0.340671526262147    0.251864789206433    0.135362544691417  0.0000
  O2     O2        0.627442390505262    0.464523527198730    0.037422177814040  0.0000
  O2     O2        0.869025259228603    0.560109780068931    0.036735861917764  0.0000
  O2     O2        0.366627885454448    0.491998079921926    0.957842719647084  0.0000
  O2     O2        0.128473256922482    0.541441532553317    0.962683131489405  0.0000
  O2     O2        0.764733706505691    0.303206200267529    0.048804965923363  0.0000
  O2     O2        0.731765039558270    0.720259996342124    0.061516157967755  0.0000
  O2     O2        0.236297083015037    0.296512291719199    0.956085483292696  0.0000
  O2     O2        0.258644591542762    0.736595974035312    0.947577498834748  0.0000
