data_c00783.vasp
_audit_creation_method             Generated by GULP
_audit_author_name                 Salvador R. G. Balestra
_symmetry_space_group_name_H-M     'P 1             '
_symmetry_Int_Tables_number        1

loop_
_symmetry_equiv_pos_site_id
_symmetry_equiv_pos_as_xyz
_cell_length_a                       16.9564
_cell_length_b                        7.5764
_cell_length_c                       10.4464
_cell_angle_alpha                   89.7823
_cell_angle_beta                    90.7184
_cell_angle_gamma                   89.2070

loop_
_atom_site_label
_atom_site_type_symbol
_atom_site_fract_x
_atom_site_fract_y
_atom_site_fract_z
_atom_site_charge
  Ge     Ge        0.556730000000016    0.000000000000000    0.122129999999970  0.0000
  Ge     Ge        0.943026639877297    0.973454575808391    0.104081630584471  0.0000
  Ge     Ge        0.162765637220510    0.265622895302814    0.279442794213599  0.0000
  Ge     Ge        0.643229602980558    0.319488197621114    0.713227986989493  0.0000
  Si     Si        0.043413720220319    0.987167865100616    0.366334025826400  0.0000
  Si     Si        0.449858173142417    0.991748513151154    0.370797369413174  0.0000
  Si     Si        0.947252265477537    0.977601362232976    0.622244874793074  0.0000
  Si     Si        0.541134955109280    0.009003141384189    0.632259231921325  0.0000
  Si     Si        0.440675559542671    0.986421877599452    0.883527745525761  0.0000
  Si     Si        0.054402100360277    0.988997879680827    0.865012633207280  0.0000
  Si     Si        0.330945409702543    0.711235342022813    0.273504215373441  0.0000
  Si     Si        0.826888759086680    0.267587007481023    0.711116063464263  0.0000
  Si     Si        0.665523048938790    0.731879847808746    0.724229719982422  0.0000
  Si     Si        0.846749372312531    0.672187242698651    0.721227187166469  0.0000
  Si     Si        0.148137688622748    0.681076678550051    0.274018752978543  0.0000
  Si     Si        0.347983073904993    0.304457960914531    0.280163114812886  0.0000
  Si     Si        0.641818644540478    0.323925731242898    0.016070869546633  0.0000
  Si     Si        0.854081104907269    0.647017116195580    0.017873718847912  0.0000
  Si     Si        0.346708471629340    0.305601795094235    0.980737845229639  0.0000
  Si     Si        0.146316629704214    0.671204143570586    0.976836791442220  0.0000
  Si     Si        0.328846679161598    0.705209567054181    0.974975457969095  0.0000
  Si     Si        0.163980163056424    0.266402737261975    0.975925273909164  0.0000
  Si     Si        0.673088218650477    0.719396214396607    0.021411674511617  0.0000
  Si     Si        0.822606035981274    0.254262384778642    0.011102481474413  0.0000
  O3     O3        0.108683103900304    0.136790566884837    0.379592290499234  0.0000
  O2     O2        0.380490439786641    0.849076445978519    0.355669158412346  0.0000
  O2     O2        0.883006115240703    0.134741985337963    0.633793522179806  0.0000
  O2     O2        0.618575886496799    0.881999155562351    0.644279418270329  0.0000
  O2     O2        0.905876480022220    0.788959060852015    0.638654800229918  0.0000
  O3     O3        0.573696896952421    0.205401785376000    0.625751111051332  0.0000
  O2     O2        0.089360694433661    0.799620742015231    0.357042256703707  0.0000
  O2     O2        0.412707021132799    0.189392156757103    0.358707771224260  0.0000
  O2     O2        0.983282185870817    0.983833690920920    0.482140194334529  0.0000
  O2     O2        0.489844523160959    0.963866488268411    0.508190550278687  0.0000
  O3     O3        0.994074673641531    0.028889040615735    0.238308776426768  0.0000
  O3     O3        0.516847718447862    0.961818470871373    0.268251109970430  0.0000
  O2     O2        0.018774494615120    0.000116413778774    0.722799942351767  0.0000
  O2     O2        0.484040905672094    0.975461271137050    0.750386052052931  0.0000
  O3     O3        0.583484745479111    0.217849911875475    0.105853951841037  0.0000
  O3     O3        0.915932883602696    0.753831839920124    0.102263962567743  0.0000
  O2     O2        0.406065819018339    0.185246427680372    0.900040037920220  0.0000
  O2     O2        0.087985620704655    0.790020661208390    0.889730372502559  0.0000
  O2     O2        0.369611075153384    0.845577741698825    0.883569972080046  0.0000
  O2     O2        0.123835085454020    0.132675668504368    0.877035786845655  0.0000
  O3     O3        0.639192220812778    0.863393026270756    0.114986338029062  0.0000
  O3     O3        0.857828891584862    0.101755841721707    0.097904010515324  0.0000
  O3     O3        0.496290197981524    0.930539749031757    0.000209332864070  0.0000
  O3     O3        0.990568765527893    0.039987883865673    0.968382788742637  0.0000
  O3     O3        0.132470528523029    0.480372765734835    0.303763886470947  0.0000
  O2     O2        0.359949627169105    0.512267260839712    0.306795934134874  0.0000
  O2     O2        0.859845033098114    0.465582100782507    0.691518678446503  0.0000
  O3     O3        0.628698903070558    0.543540535956074    0.694588094143505  0.0000
  O3     O3        0.261474162880130    0.248083358730104    0.319067399808330  0.0000
  O2     O2        0.238654655941739    0.731777785351608    0.306334398085675  0.0000
  O3     O3        0.737222277283257    0.263369051087334    0.662962092190730  0.0000
  O2     O2        0.757293548926179    0.728698640033604    0.684005735199985  0.0000
  O3     O3        0.150040017968506    0.206028509275869    0.120982350293843  0.0000
  O2     O2        0.342750078665268    0.753845610430692    0.123763383590055  0.0000
  O2     O2        0.826890938554055    0.210920609442804    0.860042674669101  0.0000
  O2     O2        0.661825494444776    0.781624661209527    0.874006638345707  0.0000
  O2     O2        0.865596630378477    0.708660377067161    0.870386145013154  0.0000
  O3     O3        0.626117910967584    0.264254946786513    0.870737807927613  0.0000
  O2     O2        0.129849345651949    0.723278761839734    0.124006721832015  0.0000
  O2     O2        0.362094452350094    0.263850388599857    0.130326584724849  0.0000
  O2     O2        0.627865741621377    0.533066115671372    0.034958599013373  0.0000
  O2     O2        0.869120174558919    0.438013748848922    0.034883576740147  0.0000
  O2     O2        0.364195309660718    0.509511786102105    0.949014850712968  0.0000
  O2     O2        0.128709109846307    0.464872298782269    0.955940828036802  0.0000
  O2     O2        0.732259026338866    0.277120753639351    0.051673882201218  0.0000
  O2     O2        0.764919359008860    0.693501495511291    0.057252260344226  0.0000
  O2     O2        0.256670417256038    0.263577713689767    0.946055251418775  0.0000
  O2     O2        0.236197253736761    0.710512599672740    0.942039543202353  0.0000
