data_c00718.vasp
_audit_creation_method             Generated by GULP
_audit_author_name                 Salvador R. G. Balestra
_symmetry_space_group_name_H-M     'P 1             '
_symmetry_Int_Tables_number        1

loop_
_symmetry_equiv_pos_site_id
_symmetry_equiv_pos_as_xyz
_cell_length_a                       17.1825
_cell_length_b                        7.6259
_cell_length_c                       10.3014
_cell_angle_alpha                   90.4127
_cell_angle_beta                    90.5801
_cell_angle_gamma                   90.2323

loop_
_atom_site_label
_atom_site_type_symbol
_atom_site_fract_x
_atom_site_fract_y
_atom_site_fract_z
_atom_site_charge
  Ge     Ge        0.052090000000021    0.000000000000000    0.372269999999958  0.0000
  Ge     Ge        0.654252268931504    0.673821830339439    0.709019742393644  0.0000
  Ge     Ge        0.673003039667079    0.279181515333823    0.028342129190677  0.0000
  Ge     Ge        0.157722254155708    0.318090910130588    0.967107581164746  0.0000
  Si     Si        0.452740221055306    0.991331748757969    0.369752442403156  0.0000
  Si     Si        0.952395598967255    0.990084177318792    0.637773528312685  0.0000
  Si     Si        0.550081302454229    0.980960651665098    0.628316579862110  0.0000
  Si     Si        0.564312649494373    0.992578890082619    0.127721459352984  0.0000
  Si     Si        0.946438662229748    0.008146104748359    0.119241705653344  0.0000
  Si     Si        0.452355647029658    0.005162220912765    0.886957781842315  0.0000
  Si     Si        0.059085115067146    0.003499989837924    0.885805633004618  0.0000
  Si     Si        0.160714734642459    0.301646488246573    0.272501802741586  0.0000
  Si     Si        0.349438318993022    0.686309480491686    0.284376482313588  0.0000
  Si     Si        0.847586689414207    0.299703523584736    0.718394667014308  0.0000
  Si     Si        0.836200395527253    0.699711264358469    0.704037256259036  0.0000
  Si     Si        0.668821201507009    0.260260018162850    0.722006246980764  0.0000
  Si     Si        0.170626481991308    0.710885151331084    0.276881569219854  0.0000
  Si     Si        0.339323148907903    0.284310730783792    0.273503921208650  0.0000
  Si     Si        0.835870191326979    0.716924994497570    0.009092429850139  0.0000
  Si     Si        0.340281275309055    0.296575753705798    0.968261885039731  0.0000
  Si     Si        0.172621548703081    0.725573381618053    0.976841122840687  0.0000
  Si     Si        0.352769642643128    0.693841040632456    0.982080069040865  0.0000
  Si     Si        0.655686604223789    0.684151476820828    0.014475612650029  0.0000
  Si     Si        0.854302556537305    0.323800089863258    0.023146744303115  0.0000
  O3     O3        0.102224964504684    0.195320823338561    0.360673122207481  0.0000
  O2     O2        0.406158342547946    0.806859254054282    0.372209877666812  0.0000
  O2     O2        0.905610513428617    0.173547013658171    0.641218352912711  0.0000
  O3     O3        0.587479785035105    0.789688600244104    0.618511501591744  0.0000
  O2     O2        0.890862067484799    0.829927302902580    0.623257949221596  0.0000
  O2     O2        0.621314319319153    0.119750984960119    0.635233855939465  0.0000
  O3     O3        0.116756444854566    0.827751415449624    0.365219260418151  0.0000
  O2     O2        0.392614855262004    0.150060954342025    0.351689596818870  0.0000
  O3     O3        0.012494461653071    0.992565800331992    0.523704952314140  0.0000
  O2     O2        0.496709465629463    0.020516036837488    0.504609048984069  0.0000
  O3     O3        0.975655003996716    0.981755646225045    0.264001576983887  0.0000
  O2     O2        0.515969190444120    0.988781942472443    0.257827833767423  0.0000
  O2     O2        0.000646507103227    0.959019205996141    0.769829464868024  0.0000
  O2     O2        0.496103488739586    0.003164139145632    0.752599371738218  0.0000
  O3     O3        0.629579107759801    0.141544778667975    0.136887889101550  0.0000
  O2     O2        0.876601609525727    0.871865673918167    0.089684626752735  0.0000
  O2     O2        0.390333235073535    0.162243668478661    0.883824235829077  0.0000
  O2     O2        0.132097696737209    0.869984102627662    0.886586118259849  0.0000
  O2     O2        0.409781489939140    0.818028617403066    0.902522960038777  0.0000
  O3     O3        0.093157202314290    0.197895696721574    0.873081946048219  0.0000
  O2     O2        0.603437360547848    0.803055672900000    0.108410056450224  0.0000
  O2     O2        0.916705549810814    0.208073237348924    0.101681204874369  0.0000
  O2     O2        0.511446802356847    0.045458623516642    0.004370105474958  0.0000
  O2     O2        0.016828961295620    0.972690538842018    0.022276307800996  0.0000
  O2     O2        0.144171830544269    0.508728010386092    0.284423092060413  0.0000
  O2     O2        0.368301143229651    0.481799244464482    0.306913502861338  0.0000
  O2     O2        0.867584401893768    0.501184965689314    0.684961448936556  0.0000
  O3     O3        0.634244050164129    0.452618721557421    0.702184473098314  0.0000
  O2     O2        0.249889051799377    0.261048743617008    0.315696145143812  0.0000
  O2     O2        0.260641622959571    0.726721506111875    0.322387175124596  0.0000
  O2     O2        0.758801839334146    0.259092305222250    0.676141159660967  0.0000
  O3     O3        0.747928883591809    0.710756215785624    0.655344776510519  0.0000
  O3     O3        0.147439531429848    0.244223347547432    0.123982392317440  0.0000
  O2     O2        0.363808676541503    0.735896168665709    0.134552013161756  0.0000
  O2     O2        0.857160927748029    0.267461201835009    0.871913277005093  0.0000
  O3     O3        0.643799980847451    0.745198997893558    0.867394248271699  0.0000
  O2     O2        0.838383340781833    0.754945579667863    0.855884936420184  0.0000
  O3     O3        0.665945873030100    0.202323401863296    0.871034671016311  0.0000
  O2     O2        0.163177126283579    0.776469298779969    0.128496871138455  0.0000
  O2     O2        0.344395870998030    0.245759470380188    0.120145654610415  0.0000
  O3     O3        0.631264638946620    0.484500090818372    0.033175698393742  0.0000
  O2     O2        0.876961042563988    0.529991731889736    0.039071953528095  0.0000
  O2     O2        0.374886802378208    0.492917333719988    0.950824529621849  0.0000
  O3     O3        0.135384148885261    0.536446346825307    0.950478374189016  0.0000
  O3     O3        0.769160682953467    0.291626916942751    0.076663871580240  0.0000
  O2     O2        0.746720881267631    0.706610574182736    0.053413799908227  0.0000
  O3     O3        0.252488218777608    0.288068675474423    0.918693215571100  0.0000
  O2     O2        0.263602663700197    0.725149632998162    0.940360901361107  0.0000
