data_c00760.vasp
_audit_creation_method             Generated by GULP
_audit_author_name                 Salvador R. G. Balestra
_symmetry_space_group_name_H-M     'P 1             '
_symmetry_Int_Tables_number        1

loop_
_symmetry_equiv_pos_site_id
_symmetry_equiv_pos_as_xyz
_cell_length_a                       17.0946
_cell_length_b                        7.6483
_cell_length_c                       10.2777
_cell_angle_alpha                   90.1340
_cell_angle_beta                    90.4500
_cell_angle_gamma                   89.7490

loop_
_atom_site_label
_atom_site_type_symbol
_atom_site_fract_x
_atom_site_fract_y
_atom_site_fract_z
_atom_site_charge
  Ge     Ge        0.052090000000021    0.000000000000000    0.372269999999958  0.0000
  Ge     Ge        0.828777940440363    0.694260199526916    0.033968769937007  0.0000
  Ge     Ge        0.325492150308091    0.258502148318412    0.975303029412392  0.0000
  Ge     Ge        0.162389884520951    0.705810666151644    0.984029376278037  0.0000
  Si     Si        0.450398142469357    0.978008716013303    0.369255518587602  0.0000
  Si     Si        0.943837190659952    0.991426055240257    0.626309329649319  0.0000
  Si     Si        0.547522721724115    0.979409492932095    0.632340548567520  0.0000
  Si     Si        0.549046913632293    0.988155950801079    0.114829938130763  0.0000
  Si     Si        0.942195005774705    0.979889543247938    0.115554131288661  0.0000
  Si     Si        0.436663449180749    0.974223625160485    0.877661892517544  0.0000
  Si     Si        0.048642094282592    0.991201115512921    0.876421078038386  0.0000
  Si     Si        0.155874965902809    0.307899200882394    0.292699117764123  0.0000
  Si     Si        0.348780236111602    0.669148647658489    0.277469739151186  0.0000
  Si     Si        0.839412132313963    0.293074098954463    0.721557202680112  0.0000
  Si     Si        0.653768147736662    0.675133436921787    0.717634823450854  0.0000
  Si     Si        0.832504126910358    0.697497913391291    0.724039753975241  0.0000
  Si     Si        0.658982596765953    0.275179763294183    0.717505726147550  0.0000
  Si     Si        0.169663482550493    0.711696931041384    0.290767766861188  0.0000
  Si     Si        0.334931766628213    0.267366608841830    0.284043598440072  0.0000
  Si     Si        0.660122504628896    0.274682048267022    0.020731668713505  0.0000
  Si     Si        0.346722758578938    0.657445937771473    0.972956753771486  0.0000
  Si     Si        0.141621214933056    0.303329118755637    0.990178875496350  0.0000
  Si     Si        0.646485030428896    0.671261874725579    0.023987244543274  0.0000
  Si     Si        0.842342185224389    0.291315742486553    0.023648945082823  0.0000
  O3     O3        0.098872007297969    0.199630217606478    0.383259171057344  0.0000
  O2     O2        0.409202571975757    0.789438135073061    0.356588520633417  0.0000
  O2     O2        0.894986408298666    0.172310771864434    0.634538498627791  0.0000
  O2     O2        0.596294743180842    0.799156615192702    0.635791759360656  0.0000
  O2     O2        0.887399340062702    0.824802553376346    0.641924668930530  0.0000
  O2     O2        0.606770505810814    0.143038724592829    0.633144978628911  0.0000
  O3     O3        0.121777939381901    0.835947794742164    0.385647815613952  0.0000
  O2     O2        0.386629977718930    0.133917175016690    0.369778990898908  0.0000
  O3     O3        0.980541494157461    0.979524919167982    0.485653020926031  0.0000
  O2     O2        0.496374545605992    0.984963244848816    0.503586934687528  0.0000
  O3     O3        0.007602756527268    0.980851229737430    0.223050672684506  0.0000
  O2     O2        0.512757966631867    0.004835909380541    0.256066759334201  0.0000
  O2     O2        0.014226066876958    0.992663537100092    0.731026392001551  0.0000
  O2     O2        0.489620663607834    0.990958225636109    0.752745738386208  0.0000
  O2     O2        0.617715646919672    0.130877637121586    0.107265680582389  0.0000
  O3     O3        0.879027377910858    0.829643873662580    0.137184021117954  0.0000
  O3     O3        0.363929280466358    0.105229098465080    0.871434310487386  0.0000
  O3     O3        0.119143500879944    0.854200777131792    0.881294379043649  0.0000
  O2     O2        0.405342357404702    0.776410562723845    0.889845071182539  0.0000
  O2     O2        0.078845666062363    0.184745129736346    0.913986510006493  0.0000
  O2     O2        0.582682144116510    0.792516785171782    0.094403708148378  0.0000
  O2     O2        0.896034168376811    0.164495204420615    0.109979461021981  0.0000
  O2     O2        0.484457694285005    0.034405096140322    0.006223100416123  0.0000
  O2     O2        0.982524333767670    0.930817057543456    0.977493880740414  0.0000
  O2     O2        0.138108515055139    0.513753844398767    0.304492333760150  0.0000
  O2     O2        0.368481830958480    0.464436617389054    0.299250730708506  0.0000
  O2     O2        0.860701173953805    0.496793519122338    0.702961852889714  0.0000
  O2     O2        0.631359357712256    0.473708152949322    0.689359615589925  0.0000
  O2     O2        0.245523926587927    0.265777284151288    0.333579107074268  0.0000
  O2     O2        0.261745302649508    0.713234500009338    0.326903695321942  0.0000
  O2     O2        0.749900626288350    0.256364425906184    0.679427125135761  0.0000
  O2     O2        0.742597479023538    0.713112903157801    0.674691197650264  0.0000
  O2     O2        0.142663956843053    0.248978158132500    0.142756054412014  0.0000
  O2     O2        0.354065850936891    0.712896362334631    0.124917060804173  0.0000
  O2     O2        0.852888275897175    0.241463557987394    0.871927759010460  0.0000
  O2     O2        0.645516187490289    0.715668741005496    0.870584246209618  0.0000
  O3     O3        0.836521721978443    0.753571992320431    0.873112195139435  0.0000
  O2     O2        0.649297138266476    0.227278819189111    0.868962301675935  0.0000
  O3     O3        0.158334895514053    0.777256692503420    0.143164171068807  0.0000
  O3     O3        0.336759980619908    0.202099624786399    0.136450462396824  0.0000
  O2     O2        0.624611842388537    0.467692909663742    0.047343931336720  0.0000
  O3     O3        0.867256254930450    0.486910996576100    0.052365911034577  0.0000
  O3     O3        0.370061838723917    0.458140494908239    0.951511464699037  0.0000
  O3     O3        0.117513627702932    0.503949145957396    0.973356040276057  0.0000
  O2     O2        0.751172700953528    0.270834163710009    0.060111333927189  0.0000
  O3     O3        0.732117189159168    0.705206907262502    0.079808100737281  0.0000
  O3     O3        0.227827598916506    0.272989185238277    0.934849390059990  0.0000
  O3     O3        0.257315422320255    0.686515409409118    0.931320250305953  0.0000
