data_c00774.vasp
_audit_creation_method             Generated by GULP
_audit_author_name                 Salvador R. G. Balestra
_symmetry_space_group_name_H-M     'P 1             '
_symmetry_Int_Tables_number        1

loop_
_symmetry_equiv_pos_site_id
_symmetry_equiv_pos_as_xyz
_cell_length_a                       16.9061
_cell_length_b                        7.5593
_cell_length_c                       10.4865
_cell_angle_alpha                   90.0945
_cell_angle_beta                    89.7380
_cell_angle_gamma                   89.7736

loop_
_atom_site_label
_atom_site_type_symbol
_atom_site_fract_x
_atom_site_fract_y
_atom_site_fract_z
_atom_site_charge
  Ge     Ge        0.556730000000016    0.000000000000000    0.122129999999970  0.0000
  Ge     Ge        0.940382926633648    0.976129772054627    0.114664829759205  0.0000
  Ge     Ge        0.443203615846380    0.993818103375129    0.877754094666544  0.0000
  Ge     Ge        0.668895134771500    0.719617323992270    0.707122350135365  0.0000
  Si     Si        0.046928860984886    0.983016639873464    0.366906440656461  0.0000
  Si     Si        0.448349595453874    0.000737996231242    0.367714245741559  0.0000
  Si     Si        0.952873425417591    0.972740599410661    0.627312792142187  0.0000
  Si     Si        0.546487253691256    0.996355690305447    0.620021720773566  0.0000
  Si     Si        0.053141148288277    0.991485313827063    0.877306503378019  0.0000
  Si     Si        0.164661450036638    0.267813681928150    0.269771584987488  0.0000
  Si     Si        0.330670424925056    0.715347234068076    0.266417249424186  0.0000
  Si     Si        0.830455384638296    0.253590720814280    0.714608193870002  0.0000
  Si     Si        0.854220327616494    0.659513918306077    0.711804460036705  0.0000
  Si     Si        0.647533069363253    0.304839634715777    0.709841080991876  0.0000
  Si     Si        0.148715853227222    0.674212612231067    0.274404110286784  0.0000
  Si     Si        0.346837019048867    0.306450165184657    0.263743959211714  0.0000
  Si     Si        0.642367879869519    0.323236836626842    0.004670502156630  0.0000
  Si     Si        0.854334699163172    0.649760609404759    0.008801514458773  0.0000
  Si     Si        0.348905908278895    0.318489649645430    0.968627669520086  0.0000
  Si     Si        0.142142781068273    0.669393197494373    0.978315045572426  0.0000
  Si     Si        0.324662776187187    0.719025241051619    0.970660534633332  0.0000
  Si     Si        0.165575731306872    0.271268985512820    0.972733718985836  0.0000
  Si     Si        0.672551269154046    0.724335165623017    0.007690802467255  0.0000
  Si     Si        0.824009703620725    0.253681679154692    0.011218928939258  0.0000
  O2     O2        0.114444794269118    0.132914554648430    0.354648418581357  0.0000
  O2     O2        0.383598005695815    0.845964070896667    0.350449084455895  0.0000
  O2     O2        0.880037158418700    0.112231562867418    0.632007241263762  0.0000
  O3     O3        0.615875390368871    0.852822658460259    0.605485209908693  0.0000
  O2     O2        0.918280077751163    0.773553637706600    0.632237119029738  0.0000
  O2     O2        0.587650613978751    0.189142985773986    0.625649738240836  0.0000
  O2     O2        0.088627586194214    0.790345510464153    0.358836664731253  0.0000
  O2     O2        0.407282517723633    0.191837557429567    0.346991843809729  0.0000
  O2     O2        0.002697837908842    0.001416676304461    0.500331942030923  0.0000
  O2     O2        0.481304624522886    0.993087240219636    0.510234951770601  0.0000
  O3     O3        0.981345321830502    0.008875147633519    0.260303224830364  0.0000
  O3     O3        0.522473583623428    0.977432631605967    0.275188097273284  0.0000
  O2     O2        0.012565641142772    0.009324032517481    0.741899011875386  0.0000
  O3     O3        0.501001836160512    0.948878602073622    0.749352179852705  0.0000
  O3     O3        0.581525957998330    0.218858264768066    0.091645434079756  0.0000
  O3     O3        0.914356452174196    0.756890298746881    0.095065987293085  0.0000
  O3     O3        0.408594308783673    0.210341184544441    0.881095593326942  0.0000
  O2     O2        0.081859983323582    0.788638266980877    0.897866498244774  0.0000
  O3     O3        0.360614501962643    0.857687239308970    0.875783315383504  0.0000
  O2     O2        0.127394703368864    0.125774749901264    0.881385164976136  0.0000
  O3     O3        0.638299000180992    0.862465690974378    0.107068657306579  0.0000
  O3     O3        0.856488382674509    0.107747583857391    0.104620152491339  0.0000
  O1     O1        0.489651247468341    0.930530300023159    0.013829321012723  0.0000
  O3     O3        0.997217932455687    0.053018024784856    0.991102211036891  0.0000
  O2     O2        0.135872157702419    0.467001226127840    0.301874190070949  0.0000
  O2     O2        0.360115334177043    0.514344943711966    0.289656381347843  0.0000
  O2     O2        0.864505186580630    0.449469009876170    0.687014503925132  0.0000
  O3     O3        0.633604857949957    0.508231851857676    0.683216483172647  0.0000
  O2     O2        0.257617722939691    0.251132089365354    0.301022579897859  0.0000
  O2     O2        0.238544291372865    0.729902643606642    0.306347037167091  0.0000
  O2     O2        0.738052533871617    0.248065703441718    0.676220286327323  0.0000
  O3     O3        0.767968896952441    0.719889504214469    0.668605458662200  0.0000
  O2     O2        0.152298449413089    0.221135673718742    0.121157274991106  0.0000
  O2     O2        0.339025885120126    0.771072394572639    0.118977787174747  0.0000
  O2     O2        0.836933472867949    0.200502244706548    0.862875691835925  0.0000
  O3     O3        0.660087782400018    0.790439891068234    0.863242596263961  0.0000
  O2     O2        0.868978836880373    0.700829874275803    0.860819827524622  0.0000
  O2     O2        0.627831638147022    0.262203174428086    0.858234756478092  0.0000
  O2     O2        0.127550201425479    0.715020373620653    0.127299962086405  0.0000
  O2     O2        0.365569426201133    0.262450307025359    0.115853104091520  0.0000
  O2     O2        0.629105811582453    0.533366667849863    0.017644782712688  0.0000
  O2     O2        0.867448905954239    0.441808784828032    0.033350815282283  0.0000
  O2     O2        0.363789645651335    0.525872373986471    0.947964588310845  0.0000
  O2     O2        0.125668111494857    0.463497151177907    0.948996447699707  0.0000
  O2     O2        0.731439204161189    0.273282963180635    0.043016151985394  0.0000
  O2     O2        0.764458349002030    0.702208323756454    0.041498964583095  0.0000
  O2     O2        0.257920223609241    0.274348694448778    0.938251391320007  0.0000
  O2     O2        0.231650969876317    0.712894075476106    0.942023826803536  0.0000
