data_c00704.vasp
_audit_creation_method             Generated by GULP
_audit_author_name                 Salvador R. G. Balestra
_symmetry_space_group_name_H-M     'P 1             '
_symmetry_Int_Tables_number        1

loop_
_symmetry_equiv_pos_site_id
_symmetry_equiv_pos_as_xyz
_cell_length_a                       17.1237
_cell_length_b                        7.6510
_cell_length_c                       10.2988
_cell_angle_alpha                   89.4396
_cell_angle_beta                    90.7538
_cell_angle_gamma                   90.7028

loop_
_atom_site_label
_atom_site_type_symbol
_atom_site_fract_x
_atom_site_fract_y
_atom_site_fract_z
_atom_site_charge
  Ge     Ge        0.052090000000021    0.000000000000000    0.372269999999958  0.0000
  Ge     Ge        0.837467666917098    0.317107740330431    0.704043636607441  0.0000
  Ge     Ge        0.327055616061534    0.743953167205313    0.960964499633054  0.0000
  Ge     Ge        0.166182499158257    0.289347255044781    0.970736368212219  0.0000
  Si     Si        0.450916442851489    0.028241309756261    0.355143173806922  0.0000
  Si     Si        0.949480586887378    0.022437739318723    0.629954657633197  0.0000
  Si     Si        0.546258733366915    0.027668693255643    0.619800524366105  0.0000
  Si     Si        0.552675998654980    0.007075314062316    0.103973847478491  0.0000
  Si     Si        0.940060139106212    0.020930742776500    0.124117316218199  0.0000
  Si     Si        0.438746766935081    0.032354374606244    0.866968867383383  0.0000
  Si     Si        0.049704670057384    0.004227731417181    0.887593304713805  0.0000
  Si     Si        0.171348783102341    0.290123705614743    0.276358351665385  0.0000
  Si     Si        0.334399374461946    0.738953886131571    0.269803912276508  0.0000
  Si     Si        0.657340611868646    0.731863115633048    0.710524148711763  0.0000
  Si     Si        0.838574941278119    0.725818004768862    0.709685526866690  0.0000
  Si     Si        0.653748373226684    0.330446956850289    0.701526865738903  0.0000
  Si     Si        0.155962164319435    0.695059595728893    0.271162001449563  0.0000
  Si     Si        0.349125842119059    0.337336915056815    0.267495558586615  0.0000
  Si     Si        0.653468082395420    0.321088222134193    0.006376180958550  0.0000
  Si     Si        0.841373182125288    0.711801606921966    0.012753380976592  0.0000
  Si     Si        0.348849757611457    0.346764266324348    0.962190455869504  0.0000
  Si     Si        0.144066414569603    0.689273860353713    0.969635833563857  0.0000
  Si     Si        0.660720319796742    0.719433058949478    0.013120817923878  0.0000
  Si     Si        0.833595246531619    0.309613388701101    0.013500714485872  0.0000
  O3     O3        0.120806997242739    0.166163761263120    0.367525770137323  0.0000
  O2     O2        0.385720112987378    0.874513165739635    0.354140052119152  0.0000
  O3     O3        0.898742564038148    0.195936779416523    0.611295344504914  0.0000
  O2     O2        0.605218772767334    0.865207692998338    0.627521527893592  0.0000
  O2     O2        0.888744810068200    0.859565862527240    0.623443907290885  0.0000
  O2     O2        0.594298814777924    0.209631545259261    0.619813224798035  0.0000
  O3     O3        0.095723555062250    0.799804759088252    0.354884867966395  0.0000
  O2     O2        0.411035903353474    0.218033303982203    0.344402707768588  0.0000
  O3     O3        0.016093699341779    0.004658686670669    0.527049393234939  0.0000
  O2     O2        0.496907556269524    0.014726684203806    0.489248830889524  0.0000
  O3     O3        0.973686177153563    0.025408153145065    0.268177688369815  0.0000
  O2     O2        0.512676920941942    0.003576902768964    0.242073216942020  0.0000
  O2     O2        0.988386163866982    0.028785426792509    0.772680498720017  0.0000
  O2     O2        0.487135034819001    0.019880591244604    0.737724088432470  0.0000
  O2     O2        0.595801376116676    0.193592294436916    0.084319014037171  0.0000
  O2     O2        0.897222305869080    0.834139831319011    0.099620047240342  0.0000
  O2     O2        0.409424084336658    0.229810577467888    0.884355293564014  0.0000
  O2     O2        0.081559880971609    0.806229840689826    0.890546304068745  0.0000
  O3     O3        0.365366533060073    0.902098068077791    0.860751776173986  0.0000
  O3     O3        0.121342015292355    0.138141309092636    0.872306704548283  0.0000
  O2     O2        0.614186430999266    0.849663645522747    0.103526965845582  0.0000
  O2     O2        0.880104725646321    0.180380494719864    0.108969551690548  0.0000
  O2     O2        0.489256518813522    0.969604408374967    0.991646997899482  0.0000
  O2     O2        0.010590806383911    0.051681100384042    0.024566707624945  0.0000
  O2     O2        0.140006355047624    0.488011128213067    0.284824248420682  0.0000
  O2     O2        0.367756327673944    0.542696327623933    0.289171422191379  0.0000
  O3     O3        0.863898077183662    0.532372495694691    0.678639901373051  0.0000
  O2     O2        0.631703957920790    0.533281177333172    0.678388414876830  0.0000
  O2     O2        0.262692753895498    0.289982737433190    0.318553243761981  0.0000
  O2     O2        0.244607176893551    0.741984792802663    0.316518261616952  0.0000
  O3     O3        0.740753081825191    0.293749976974695    0.657414776499022  0.0000
  O2     O2        0.747768573293765    0.757279619278721    0.673851569498241  0.0000
  O3     O3        0.163294917057312    0.220533818183345    0.130412566423499  0.0000
  O3     O3        0.337173114839830    0.801037574632283    0.121522152287981  0.0000
  O3     O3        0.846222990127762    0.257843058556308    0.865634867096913  0.0000
  O2     O2        0.647070066004702    0.771648126636746    0.862670546947504  0.0000
  O2     O2        0.852825604627598    0.763349203496810    0.862521493860657  0.0000
  O2     O2        0.645310939106827    0.282022452799874    0.853757578601932  0.0000
  O2     O2        0.145076142331385    0.750121482134694    0.120272008374448  0.0000
  O2     O2        0.352836620514570    0.295842320951477    0.115141397037797  0.0000
  O2     O2        0.630829804266454    0.520733161990145    0.036890608775839  0.0000
  O2     O2        0.863507269404594    0.509193444633486    0.035865417256605  0.0000
  O3     O3        0.372454322122664    0.546049089593306    0.939054884336694  0.0000
  O3     O3        0.119973324248946    0.488765787224549    0.955996451927073  0.0000
  O2     O2        0.742640964013751    0.290427962613662    0.050052238942101  0.0000
  O2     O2        0.751677016850144    0.738909311752812    0.051346516600248  0.0000
  O3     O3        0.260425349767162    0.311485940036950    0.916429715325173  0.0000
  O3     O3        0.230440006562779    0.720318515614212    0.916166158941441  0.0000
