data_c00741.vasp
_audit_creation_method             Generated by GULP
_audit_author_name                 Salvador R. G. Balestra
_symmetry_space_group_name_H-M     'P 1             '
_symmetry_Int_Tables_number        1

loop_
_symmetry_equiv_pos_site_id
_symmetry_equiv_pos_as_xyz
_cell_length_a                       17.1493
_cell_length_b                        7.5940
_cell_length_c                       10.2531
_cell_angle_alpha                   90.1830
_cell_angle_beta                    90.5048
_cell_angle_gamma                   91.0564

loop_
_atom_site_label
_atom_site_type_symbol
_atom_site_fract_x
_atom_site_fract_y
_atom_site_fract_z
_atom_site_charge
  Ge     Ge        0.052090000000021    0.000000000000000    0.372269999999958  0.0000
  Ge     Ge        0.653460263560931    0.679232005576759    0.722679354346567  0.0000
  Ge     Ge        0.649026301284136    0.675530573318742    0.039593217963857  0.0000
  Ge     Ge        0.857675619775303    0.330906595298207    0.040658757416477  0.0000
  Si     Si        0.454869025712701    0.012222986128785    0.378009342867419  0.0000
  Si     Si        0.953389905076723    0.007674111600201    0.635875839560564  0.0000
  Si     Si        0.551014854677938    0.986124951495997    0.638369507066878  0.0000
  Si     Si        0.558153004152351    0.994512977332827    0.129042597123528  0.0000
  Si     Si        0.950495058141118    0.009293853652482    0.111576927268508  0.0000
  Si     Si        0.446588336998436    0.007546009723500    0.887350992498820  0.0000
  Si     Si        0.063112567964193    0.005269755495466    0.875684652748912  0.0000
  Si     Si        0.159209724829028    0.314120870868194    0.290466820003532  0.0000
  Si     Si        0.352881965043994    0.698506709962345    0.290812323760660  0.0000
  Si     Si        0.852362986611901    0.311586335534033    0.729981626011984  0.0000
  Si     Si        0.832168485328800    0.711268833833434    0.726870358256761  0.0000
  Si     Si        0.674073019631962    0.267549998325707    0.734407121579951  0.0000
  Si     Si        0.172843085758531    0.722347683250189    0.291505655991925  0.0000
  Si     Si        0.339389703813680    0.293719286171526    0.290815809158238  0.0000
  Si     Si        0.675430391596934    0.274947937504492    0.041817631322216  0.0000
  Si     Si        0.828532942942487    0.725195458882814    0.037091438567980  0.0000
  Si     Si        0.338218246981736    0.294209477798232    0.986631511412186  0.0000
  Si     Si        0.170161559883622    0.720489497056792    0.989354267992323  0.0000
  Si     Si        0.350777820010592    0.693910578429204    0.987540799221848  0.0000
  Si     Si        0.157825888608342    0.317166697176149    0.988714907869515  0.0000
  O3     O3        0.099039096303419    0.203610930631188    0.375363682253896  0.0000
  O2     O2        0.412119172253585    0.820327473638599    0.374860644651261  0.0000
  O2     O2        0.912056338715133    0.196172906792520    0.646230439125604  0.0000
  O3     O3        0.583948031682550    0.791496821114475    0.633765003947229  0.0000
  O2     O2        0.891582131949759    0.854181898279412    0.669890461481646  0.0000
  O2     O2        0.626311331086826    0.114099370533143    0.659804419490767  0.0000
  O3     O3        0.124328827973186    0.844360837167794    0.384410249845753  0.0000
  O2     O2        0.389439552758729    0.162191148100512    0.377952029620095  0.0000
  O3     O3        0.983375681287514    0.983153624943670    0.491257834511734  0.0000
  O2     O2        0.507687875125777    0.032876824194898    0.505047458865377  0.0000
  O3     O3        0.002295056762607    0.950072106263404    0.230510983422984  0.0000
  O2     O2        0.510803127783012    0.042638683210711    0.256452438112413  0.0000
  O2     O2        0.029500057798427    0.997182431886208    0.729567410766437  0.0000
  O2     O2        0.487659972331731    0.018296539557872    0.749641774466969  0.0000
  O2     O2        0.636278815574522    0.116094678652148    0.122644658261156  0.0000
  O2     O2        0.869998437964243    0.896700253747961    0.099082365048926  0.0000
  O2     O2        0.381564125685287    0.157745281171424    0.894768735484365  0.0000
  O2     O2        0.126222118761272    0.852453723331793    0.893655070889642  0.0000
  O2     O2        0.406212118620992    0.814700672099576    0.899413385433380  0.0000
  O2     O2        0.102402986961105    0.198005387177729    0.896973836391560  0.0000
  O3     O3        0.583372289735614    0.793615286155745    0.130529761298599  0.0000
  O3     O3        0.925007433140923    0.210611228846001    0.126997129671397  0.0000
  O2     O2        0.508329345729787    0.043346361403180    0.001535225405910  0.0000
  O2     O2        0.994013198866587    0.973005976034462    0.976111115277548  0.0000
  O2     O2        0.145860306264837    0.520354951703535    0.312216011031372  0.0000
  O2     O2        0.367856551003126    0.493784069830806    0.320899310150595  0.0000
  O2     O2        0.868941945069051    0.518741292058341    0.703129650732488  0.0000
  O3     O3        0.636773280201432    0.454606262497173    0.707100294091158  0.0000
  O2     O2        0.248520604417389    0.268430381339695    0.326454456994394  0.0000
  O2     O2        0.264390124753888    0.744733012636413    0.325660282404848  0.0000
  O2     O2        0.763562367224284    0.265600206971446    0.685340392346568  0.0000
  O3     O3        0.746779689674274    0.723304145654780    0.664391265325294  0.0000
  O2     O2        0.142542655441961    0.262810544157216    0.138659229110246  0.0000
  O2     O2        0.368170241038386    0.739322284122298    0.138747641571048  0.0000
  O3     O3        0.866873159151586    0.266800318030239    0.879991270000555  0.0000
  O1     O1        0.638604041399013    0.740304863417083    0.881035269529160  0.0000
  O2     O2        0.815825781570776    0.736668745771451    0.880480596654248  0.0000
  O2     O2        0.677037545263880    0.227763279692994    0.888226739241031  0.0000
  O2     O2        0.158802743287599    0.776565511795084    0.139944265250116  0.0000
  O2     O2        0.350876570371948    0.248098702966311    0.138501989740838  0.0000
  O3     O3        0.628448877513731    0.453919120608909    0.059160500696221  0.0000
  O3     O3        0.878373166487369    0.551996586676286    0.065053509145250  0.0000
  O2     O2        0.370723158102852    0.491191083421201    0.958209469159790  0.0000
  O2     O2        0.137427034293752    0.521556019566372    0.966580619099260  0.0000
  O3     O3        0.763195987612338    0.299076662607210    0.092427972689953  0.0000
  O3     O3        0.743319581029394    0.710819362651988    0.096481634090281  0.0000
  O2     O2        0.246913050116175    0.282993217430329    0.951642583869184  0.0000
  O2     O2        0.261056882943923    0.730340469382508    0.953593509703585  0.0000
