data_c00873.vasp
_audit_creation_method             Generated by GULP
_audit_author_name                 Salvador R. G. Balestra
_symmetry_space_group_name_H-M     'P 1             '
_symmetry_Int_Tables_number        1

loop_
_symmetry_equiv_pos_site_id
_symmetry_equiv_pos_as_xyz
_cell_length_a                       16.8882
_cell_length_b                        7.5830
_cell_length_c                       10.4423
_cell_angle_alpha                   90.3261
_cell_angle_beta                    89.3401
_cell_angle_gamma                   90.1347

loop_
_atom_site_label
_atom_site_type_symbol
_atom_site_fract_x
_atom_site_fract_y
_atom_site_fract_z
_atom_site_charge
  Ge     Ge        0.556730000000016    0.000000000000000    0.122129999999970  0.0000
  Ge     Ge        0.065007738001106    0.973355345642879    0.888115740328965  0.0000
  Ge     Ge        0.335315876754831    0.720224421342656    0.298403225301560  0.0000
  Ge     Ge        0.334298304181831    0.720193072837066    0.987322942769711  0.0000
  Si     Si        0.052162652203477    0.974980649341188    0.370770139435078  0.0000
  Si     Si        0.456523034863272    0.998788666820446    0.386193141058953  0.0000
  Si     Si        0.960564291854870    0.983545093597663    0.635618856265233  0.0000
  Si     Si        0.559118045791415    0.004401960542838    0.636152404205918  0.0000
  Si     Si        0.949344654589436    0.000078455415254    0.123660044713942  0.0000
  Si     Si        0.448920400805163    0.996421063165684    0.879664677191154  0.0000
  Si     Si        0.173810934875904    0.255766751522586    0.288205830292735  0.0000
  Si     Si        0.842838893981062    0.273205901688096    0.733916273241646  0.0000
  Si     Si        0.674554250547640    0.716402528677123    0.731899451480697  0.0000
  Si     Si        0.857069914616876    0.677870898261523    0.728849037763410  0.0000
  Si     Si        0.660841960408324    0.309570600716285    0.733639995292802  0.0000
  Si     Si        0.153178960375611    0.658286235944658    0.290565109914441  0.0000
  Si     Si        0.357311125145019    0.306304618772778    0.293425237245710  0.0000
  Si     Si        0.653836977865459    0.322583421594894    0.030694658684102  0.0000
  Si     Si        0.859487995950037    0.677528829274255    0.026240578556895  0.0000
  Si     Si        0.364760994583516    0.316209118703630    0.997796332650476  0.0000
  Si     Si        0.152672438456946    0.645453793247025    0.987696886415324  0.0000
  Si     Si        0.181230629925943    0.252081920792006    0.991071832268896  0.0000
  Si     Si        0.676479700313766    0.722785620716152    0.028874245535862  0.0000
  Si     Si        0.836911481497314    0.280322103410682    0.032743811218145  0.0000
  O2     O2        0.125606568418779    0.112638062645502    0.371206975636663  0.0000
  O3     O3        0.388063577870677    0.854114700688553    0.400318405906120  0.0000
  O2     O2        0.895377397604823    0.137268114526369    0.652502072450853  0.0000
  O2     O2        0.622756957947884    0.846571911855071    0.646345183562675  0.0000
  O2     O2        0.917370973581176    0.793682926395533    0.644923122132900  0.0000
  O2     O2        0.603112888883325    0.192491053416681    0.647121983373171  0.0000
  O2     O2        0.085139070989622    0.775602896382952    0.359057696264101  0.0000
  O2     O2        0.415235511261336    0.191062148776435    0.380483178177638  0.0000
  O2     O2        0.001372675342485    0.999142107350541    0.498342043611262  0.0000
  O2     O2        0.519278856976367    0.994399083877171    0.499060526051923  0.0000
  O2     O2        0.994375100332291    0.019199864915374    0.255468918868263  0.0000
  O3     O3        0.503888224921053    0.954227455021861    0.256683339551476  0.0000
  O3     O3        0.029169001017303    0.002089544933827    0.738066441464179  0.0000
  O2     O2        0.490514858941812    0.987408075868573    0.741965714230923  0.0000
  O3     O3        0.591508740859549    0.214777740491704    0.114332851667471  0.0000
  O2     O2        0.918320681890974    0.798661612364429    0.108219166306378  0.0000
  O2     O2        0.423450608034757    0.198521852799846    0.910925100361054  0.0000
  O3     O3        0.086183155095730    0.754193427063123    0.916376487389699  0.0000
  O3     O3        0.373775045425045    0.868891420724069    0.880481938838754  0.0000
  O3     O3        0.150500816194882    0.099883421038375    0.900656942974383  0.0000
  O3     O3        0.639049421066687    0.863806345598205    0.121529747237844  0.0000
  O2     O2        0.876241147833987    0.137351163924699    0.124165619619730  0.0000
  O3     O3        0.505032905638238    0.928132333391667    0.991136086358241  0.0000
  O3     O3        0.003549400544353    0.056222218288964    0.005218895745926  0.0000
  O2     O2        0.137455748034571    0.450075246436968    0.314323042353301  0.0000
  O3     O3        0.373088278395539    0.509631010087480    0.314539133925872  0.0000
  O2     O2        0.872264104059359    0.471322689737703    0.702624192329881  0.0000
  O2     O2        0.645748312758558    0.515864109133777    0.707362134456177  0.0000
  O2     O2        0.266037411032002    0.255434714058656    0.327130859553144  0.0000
  O3     O3        0.237168451562107    0.712689316276905    0.346642635858440  0.0000
  O2     O2        0.750825460225124    0.257050307809904    0.696906747153371  0.0000
  O2     O2        0.767333710963523    0.730306341970768    0.694278355402497  0.0000
  O2     O2        0.168074483597297    0.198953399565252    0.139733043300418  0.0000
  O1     O1        0.340659723622013    0.791115244402609    0.143177582945271  0.0000
  O2     O2        0.851035948826824    0.229172399833679    0.883844988281656  0.0000
  O2     O2        0.664011191168700    0.772842759416204    0.879756636690088  0.0000
  O2     O2        0.875971486156391    0.721490142943565    0.876962094955619  0.0000
  O2     O2        0.642156101518546    0.266074305609858    0.881998894606616  0.0000
  O2     O2        0.154179191660102    0.695891944240726    0.138750098909868  0.0000
  O2     O2        0.377630041095877    0.256480390666032    0.145099273800106  0.0000
  O2     O2        0.638025256066153    0.529614673526890    0.051335922470780  0.0000
  O2     O2        0.875920642579173    0.472818193619562    0.056814291803531  0.0000
  O3     O3        0.383761084689295    0.519259566135214    0.979768389089831  0.0000
  O2     O2        0.136086043395474    0.437296086758059    0.967195982111410  0.0000
  O2     O2        0.744181039782188    0.280385290045442    0.067764462501446  0.0000
  O2     O2        0.769197043414395    0.719464424207486    0.060328727116283  0.0000
  O2     O2        0.273769308168065    0.281718069936062    0.961281698121675  0.0000
  O3     O3        0.238779321477157    0.695935378902546    0.934556951242226  0.0000
