data_c00813.vasp
_audit_creation_method             Generated by GULP
_audit_author_name                 Salvador R. G. Balestra
_symmetry_space_group_name_H-M     'P 1             '
_symmetry_Int_Tables_number        1

loop_
_symmetry_equiv_pos_site_id
_symmetry_equiv_pos_as_xyz
_cell_length_a                       16.8605
_cell_length_b                        7.5540
_cell_length_c                       10.4782
_cell_angle_alpha                   89.4824
_cell_angle_beta                    89.6519
_cell_angle_gamma                   90.0372

loop_
_atom_site_label
_atom_site_type_symbol
_atom_site_fract_x
_atom_site_fract_y
_atom_site_fract_z
_atom_site_charge
  Ge     Ge        0.556730000000016    0.000000000000000    0.122129999999970  0.0000
  Ge     Ge        0.945864521243963    0.985353538383067    0.130092052196294  0.0000
  Ge     Ge        0.363535133323821    0.336656301062709    0.980720454573240  0.0000
  Ge     Ge        0.336535392156095    0.749894715299958    0.988212841574475  0.0000
  Si     Si        0.054581341737252    0.983600914327138    0.380245126542538  0.0000
  Si     Si        0.456431989698690    0.999500481492509    0.381377036350501  0.0000
  Si     Si        0.961186940881177    0.987883997947093    0.641891585975082  0.0000
  Si     Si        0.558319392459734    0.006032340920781    0.633823724484582  0.0000
  Si     Si        0.450803457390653    0.016694357501596    0.878469290356018  0.0000
  Si     Si        0.060079137007412    0.004820799860204    0.894860050435455  0.0000
  Si     Si        0.174191606442432    0.270625651848538    0.281990258989006  0.0000
  Si     Si        0.338089336764498    0.720224958592972    0.289648150742169  0.0000
  Si     Si        0.840010556590223    0.269351804953094    0.728353437986056  0.0000
  Si     Si        0.676888211540136    0.721991779321594    0.720496097165941  0.0000
  Si     Si        0.859056835374618    0.676114438722190    0.727139494667195  0.0000
  Si     Si        0.657837001004037    0.315876337549643    0.721011092710735  0.0000
  Si     Si        0.156723415586481    0.674693196768531    0.291734851242080  0.0000
  Si     Si        0.356251232283232    0.307933618037596    0.280201787037442  0.0000
  Si     Si        0.647666879061255    0.325506221260517    0.016479368531850  0.0000
  Si     Si        0.858557869649778    0.661270924961654    0.022965896381123  0.0000
  Si     Si        0.151281358575254    0.682021753832588    0.993191626012967  0.0000
  Si     Si        0.175677603165213    0.285945032793630    0.983275281427805  0.0000
  Si     Si        0.676285245681669    0.723744995364914    0.017036871427490  0.0000
  Si     Si        0.830041484707476    0.262945709861284    0.024672530730313  0.0000
  O2     O2        0.123811955636173    0.129118190435151    0.362172617557179  0.0000
  O2     O2        0.389906207101447    0.844506141235085    0.381394125546204  0.0000
  O2     O2        0.891799955200841    0.135372454101953    0.644201587504087  0.0000
  O2     O2        0.627161355706562    0.857159454866407    0.632743364334469  0.0000
  O2     O2        0.920913324798608    0.793433929350367    0.645106749469311  0.0000
  O2     O2        0.599053593392864    0.199857192271730    0.634724944239244  0.0000
  O2     O2        0.094086184911736    0.788581016715234    0.372791235725493  0.0000
  O2     O2        0.415674609812785    0.192833712795749    0.367710698252456  0.0000
  O2     O2        0.013513254800729    0.008519230495665    0.516015554613678  0.0000
  O2     O2        0.502906533268034    0.990140054584099    0.512936438615996  0.0000
  O3     O3        0.987266251568724    0.010557139583463    0.276271328669061  0.0000
  O3     O3        0.520197421032138    0.965351761472447    0.271730038829061  0.0000
  O2     O2        0.020032729065464    0.017723984933772    0.758427528447585  0.0000
  O2     O2        0.502714921420746    0.972611196684278    0.755992645812368  0.0000
  O3     O3        0.584173931544745    0.219386576998614    0.099027662735073  0.0000
  O3     O3        0.918363768726907    0.767019986240820    0.110169581838175  0.0000
  O3     O3        0.431158156406782    0.223281752764464    0.888158007995156  0.0000
  O2     O2        0.087021141088863    0.801926758291708    0.920534054351492  0.0000
  O3     O3        0.367597014919687    0.912590388503220    0.884014362215093  0.0000
  O2     O2        0.134991989479013    0.138614726682069    0.896118380476184  0.0000
  O3     O3        0.639663319816702    0.868090082961046    0.107127747278498  0.0000
  O3     O3        0.862593706377392    0.118442174736948    0.120175425376537  0.0000
  O3     O3        0.491598834306842    0.936927907373941    0.006077765804420  0.0000
  O3     O3        0.003764225892717    0.067048579247467    0.007904555950549  0.0000
  O2     O2        0.140068164371850    0.466133763777089    0.311693242236636  0.0000
  O2     O2        0.371065477381562    0.518756900087538    0.293320238768445  0.0000
  O2     O2        0.872694672120972    0.467983133856078    0.703195198432009  0.0000
  O2     O2        0.644844506467349    0.524000081967368    0.694107900093031  0.0000
  O2     O2        0.266230861140029    0.261383471771961    0.322280098821902  0.0000
  O2     O2        0.246201120797988    0.719947896807777    0.334776727370561  0.0000
  O2     O2        0.748045848016966    0.261439325300102    0.687291436462836  0.0000
  O2     O2        0.770069867155653    0.730739554756754    0.685664014422602  0.0000
  O2     O2        0.170104932195785    0.226755075184898    0.132128364497555  0.0000
  O3     O3        0.343617657852459    0.801048624273777    0.148463044506395  0.0000
  O2     O2        0.845084977385113    0.211497250220634    0.876532520974627  0.0000
  O2     O2        0.666442735860054    0.777032015071811    0.867867562218557  0.0000
  O2     O2        0.874286879159401    0.718089083542206    0.875464269537102  0.0000
  O2     O2        0.636440516521410    0.271854873501013    0.868109368595981  0.0000
  O2     O2        0.144873701018380    0.727285707651842    0.143747806396807  0.0000
  O3     O3        0.374341969739597    0.255375608788351    0.135570893959481  0.0000
  O2     O2        0.633060326127504    0.533899462207022    0.037013385941107  0.0000
  O2     O2        0.872036081971345    0.452926369383301    0.046074034081467  0.0000
  O1     O1        0.385722552192204    0.554089839165879    0.965609870499868  0.0000
  O2     O2        0.131657876662943    0.475781535043440    0.967926385682341  0.0000
  O2     O2        0.736835837508499    0.276539533452794    0.055363355339509  0.0000
  O2     O2        0.767986315864035    0.709716726999767    0.055343261325944  0.0000
  O3     O3        0.265772582073851    0.303298512081636    0.939449012473797  0.0000
  O3     O3        0.238870967771803    0.721407537945317    0.945937188257933  0.0000
