data_c00875.vasp
_audit_creation_method             Generated by GULP
_audit_author_name                 Salvador R. G. Balestra
_symmetry_space_group_name_H-M     'P 1             '
_symmetry_Int_Tables_number        1

loop_
_symmetry_equiv_pos_site_id
_symmetry_equiv_pos_as_xyz
_cell_length_a                       16.9803
_cell_length_b                        7.5861
_cell_length_c                       10.4213
_cell_angle_alpha                   89.9513
_cell_angle_beta                    89.3087
_cell_angle_gamma                   89.7512

loop_
_atom_site_label
_atom_site_type_symbol
_atom_site_fract_x
_atom_site_fract_y
_atom_site_fract_z
_atom_site_charge
  Ge     Ge        0.556730000000016    0.000000000000000    0.122129999999970  0.0000
  Ge     Ge        0.063211110531714    0.977498547020953    0.870712553322357  0.0000
  Ge     Ge        0.331242416955604    0.706651166663034    0.287937745933679  0.0000
  Ge     Ge        0.676539383113819    0.721529714444093    0.021681592206740  0.0000
  Si     Si        0.043714612315783    0.971275517105542    0.356949890974348  0.0000
  Si     Si        0.448324207191923    0.989682356120566    0.378838095177555  0.0000
  Si     Si        0.951485013377099    0.973712005320851    0.621771546194506  0.0000
  Si     Si        0.551791675217706    0.997030966741380    0.627884388498078  0.0000
  Si     Si        0.946865293701054    0.984276089784290    0.105410612606730  0.0000
  Si     Si        0.451367741479524    0.982479641139545    0.879331318687596  0.0000
  Si     Si        0.164498171494495    0.254709539731774    0.268794035522173  0.0000
  Si     Si        0.834032168357295    0.262038803450274    0.714081923705259  0.0000
  Si     Si        0.669620914042617    0.710415403445255    0.718108344016672  0.0000
  Si     Si        0.848869990120333    0.663826502743797    0.708407470658658  0.0000
  Si     Si        0.652932950011943    0.301674456905747    0.725101784777189  0.0000
  Si     Si        0.147031669998401    0.662278876870089    0.270850597389221  0.0000
  Si     Si        0.346306209696024    0.294511397158162    0.288208681669021  0.0000
  Si     Si        0.650135048604145    0.317629926217600    0.020925070267273  0.0000
  Si     Si        0.858462415941611    0.660740519268189    0.010541825188077  0.0000
  Si     Si        0.359441783865078    0.301258016096511    0.989797108265544  0.0000
  Si     Si        0.156169573212786    0.655439957521923    0.972053062288426  0.0000
  Si     Si        0.337965367038171    0.703159031641398    0.982691039724823  0.0000
  Si     Si        0.178212664007688    0.255050641668231    0.971416465805637  0.0000
  Si     Si        0.833543225291196    0.266874484777786    0.013388528680168  0.0000
  O2     O2        0.112131999296752    0.118490894490586    0.350129036292306  0.0000
  O3     O3        0.383730502226179    0.837596763076790    0.389996678814141  0.0000
  O2     O2        0.883144503428225    0.121942871810708    0.630810331095217  0.0000
  O2     O2        0.615445418399207    0.838757899792578    0.633035698750894  0.0000
  O2     O2        0.911524200434641    0.781164210309831    0.630323921042614  0.0000
  O2     O2        0.594093474310156    0.186442684567610    0.640233618084545  0.0000
  O2     O2        0.081814324357852    0.776204275894687    0.347971219975624  0.0000
  O2     O2        0.401710671273251    0.175568637056496    0.377005768266225  0.0000
  O2     O2        0.997068334487306    0.992176624078997    0.488624679533418  0.0000
  O2     O2        0.511330893349954    0.989777829094067    0.490810337427326  0.0000
  O2     O2        0.980742627337107    0.000901923903706    0.246299275880995  0.0000
  O3     O3        0.494927329169611    0.957741136446743    0.246634206378272  0.0000
  O3     O3        0.015301788069251    0.002748795598460    0.730013343279707  0.0000
  O2     O2        0.483907556453176    0.975454653073390    0.734893953569280  0.0000
  O3     O3        0.591383248451714    0.213295002563466    0.113249965514544  0.0000
  O2     O2        0.924875993114432    0.780477362925152    0.075796610908747  0.0000
  O2     O2        0.421968213407382    0.181896139102462    0.912183011786551  0.0000
  O3     O3        0.098141029169345    0.763980866279037    0.883670127731136  0.0000
  O2     O2        0.380418834047343    0.841834540939494    0.889087349538535  0.0000
  O3     O3        0.143259018847688    0.118347768275566    0.874056385838359  0.0000
  O1     O1        0.638160452297899    0.866732372385893    0.127445289473195  0.0000
  O2     O2        0.870516733931722    0.112479942323900    0.098757378594107  0.0000
  O3     O3        0.516418521392938    0.926975243993240    0.979621536987091  0.0000
  O3     O3        0.007604257022467    0.049559777340403    0.998910440937210  0.0000
  O2     O2        0.133398146395439    0.453638573842396    0.292896037072146  0.0000
  O3     O3        0.362034447068491    0.494554823916903    0.319486728081369  0.0000
  O2     O2        0.865841099206583    0.457745181605045    0.681381958226180  0.0000
  O2     O2        0.637523667349074    0.510121784258924    0.706436920981837  0.0000
  O2     O2        0.255074541103891    0.242073068045953    0.313241983693585  0.0000
  O3     O3        0.231837744061623    0.717952742131364    0.320564122678431  0.0000
  O2     O2        0.741763966387784    0.252155067982663    0.681058116985023  0.0000
  O2     O2        0.760207026270601    0.713732174391759    0.666899264551744  0.0000
  O2     O2        0.160599946996578    0.201127808632949    0.119465178146647  0.0000
  O3     O3        0.346806933690603    0.763202641631600    0.129213402907919  0.0000
  O2     O2        0.844008836638226    0.215943541021618    0.863866087543963  0.0000
  O3     O3        0.668594452214549    0.780824947465121    0.861932575535653  0.0000
  O2     O2        0.860009512640322    0.703310582989900    0.858632223018470  0.0000
  O2     O2        0.637858145379217    0.251437507397004    0.873938541170980  0.0000
  O2     O2        0.139144361040316    0.708149118689180    0.120235362748628  0.0000
  O2     O2        0.369892496030067    0.254919748623971    0.139718020994463  0.0000
  O3     O3        0.630346700546674    0.520083807867346    0.037189363773195  0.0000
  O2     O2        0.877010242067860    0.453866638390554    0.036544843788355  0.0000
  O2     O2        0.376694891495748    0.507990564557577    0.966511042617977  0.0000
  O2     O2        0.141665124406133    0.449124561018804    0.948082428729513  0.0000
  O2     O2        0.742152361323619    0.283850370345817    0.052868988762169  0.0000
  O3     O3        0.773800825175527    0.706033968906561    0.065887891789408  0.0000
  O2     O2        0.271774417564143    0.257791953916327    0.946062574170772  0.0000
  O2     O2        0.247142893532060    0.700215779748301    0.941911123905931  0.0000
