data_c00843.vasp
_audit_creation_method             Generated by GULP
_audit_author_name                 Salvador R. G. Balestra
_symmetry_space_group_name_H-M     'P 1             '
_symmetry_Int_Tables_number        1

loop_
_symmetry_equiv_pos_site_id
_symmetry_equiv_pos_as_xyz
_cell_length_a                       16.9335
_cell_length_b                        7.5875
_cell_length_c                       10.3776
_cell_angle_alpha                   90.2474
_cell_angle_beta                    90.6984
_cell_angle_gamma                   89.8196

loop_
_atom_site_label
_atom_site_type_symbol
_atom_site_fract_x
_atom_site_fract_y
_atom_site_fract_z
_atom_site_charge
  Ge     Ge        0.556730000000016    0.000000000000000    0.122129999999970  0.0000
  Ge     Ge        0.439722771080549    0.002034334667504    0.876547023875185  0.0000
  Ge     Ge        0.672513135020200    0.277354960052382    0.999619388651316  0.0000
  Ge     Ge        0.163540820386716    0.732209699415046    0.953255911081434  0.0000
  Si     Si        0.042820605569791    0.014432479041144    0.345694264755235  0.0000
  Si     Si        0.443129217303804    0.994135754836083    0.362504256768940  0.0000
  Si     Si        0.941997668836184    0.019817515022873    0.600730346436681  0.0000
  Si     Si        0.541627999661947    0.005784673956616    0.618315946151418  0.0000
  Si     Si        0.946333922228401    0.008614758904773    0.085102979865999  0.0000
  Si     Si        0.052663575623252    0.012312192049124    0.848764933832384  0.0000
  Si     Si        0.143891471996245    0.321669795569015    0.258027120289672  0.0000
  Si     Si        0.341310636210828    0.686314398433580    0.260378222862416  0.0000
  Si     Si        0.841055982243157    0.330052630346261    0.685733786461866  0.0000
  Si     Si        0.645042626033074    0.696777227038428    0.702689251677628  0.0000
  Si     Si        0.826598331399467    0.731985416217848    0.691064325669110  0.0000
  Si     Si        0.660199285280012    0.287849918700010    0.695029873585452  0.0000
  Si     Si        0.160468835338441    0.728885176078258    0.259223353825429  0.0000
  Si     Si        0.325366531594722    0.281248405917501    0.259490652158712  0.0000
  Si     Si        0.831290659883445    0.727185909199074    0.991730367365511  0.0000
  Si     Si        0.320367526226537    0.280008777083264    0.960449150939839  0.0000
  Si     Si        0.348075901809433    0.673766823346755    0.959123082346868  0.0000
  Si     Si        0.137158138014942    0.332611306755205    0.959916797802063  0.0000
  Si     Si        0.647553738012556    0.683261540023569    0.000120219967485  0.0000
  Si     Si        0.855762445088529    0.331793301339233    0.988207540876061  0.0000
  O2     O2        0.085249585565611    0.205243010330995    0.343483795280026  0.0000
  O2     O2        0.403084690173689    0.802811405941122    0.341910857107035  0.0000
  O2     O2        0.899587318136821    0.210544658971668    0.601328041625198  0.0000
  O2     O2        0.583921122632776    0.813617470281610    0.619420408273942  0.0000
  O2     O2        0.875059334056798    0.869111723534843    0.605981128499516  0.0000
  O2     O2        0.607353078576235    0.160181989966486    0.603907168124175  0.0000
  O2     O2        0.108885514069285    0.860468792166431    0.346705963359012  0.0000
  O2     O2        0.377521872362805    0.146449248621789    0.342787095947942  0.0000
  O2     O2        0.991628486165262    0.998676510365309    0.472651453755203  0.0000
  O2     O2        0.476116734572411    0.008624711838296    0.506830340752617  0.0000
  O2     O2        0.984037784680347    0.989870585253432    0.225196031902282  0.0000
  O3     O3        0.518046533796068    0.015340977258003    0.273095185620885  0.0000
  O2     O2        0.000832255278048    0.999087320500967    0.721061108127435  0.0000
  O3     O3        0.496031749373036    0.047217218341159    0.747373704467592  0.0000
  O1     O1        0.637070913148272    0.133474594310383    0.107714845052020  0.0000
  O2     O2        0.870946648464739    0.878866549072421    0.078423870206260  0.0000
  O3     O3        0.354535013911199    0.130668190720696    0.871117290799642  0.0000
  O3     O3        0.126193884205597    0.881670937815644    0.844448234385710  0.0000
  O3     O3        0.412945820652959    0.782409473894914    0.883758899133631  0.0000
  O2     O2        0.082117004558337    0.212602152986686    0.868697716607953  0.0000
  O3     O3        0.589188931782312    0.787626009447713    0.090738161606033  0.0000
  O2     O2        0.921473048724006    0.211641351050218    0.059197483562795  0.0000
  O1     O1        0.489361374295426    0.070866805679573    0.010878931948855  0.0000
  O2     O2        0.005989382721307    0.943969317957763    0.974813786688643  0.0000
  O2     O2        0.128634919905258    0.529695082488842    0.278105929571764  0.0000
  O2     O2        0.357689937606241    0.479143251876565    0.284295441735973  0.0000
  O2     O2        0.857839103211470    0.535507914382997    0.658700688465263  0.0000
  O2     O2        0.628413055762006    0.489091920913671    0.683768397553310  0.0000
  O2     O2        0.233619724692706    0.272773755343343    0.299251302036968  0.0000
  O2     O2        0.252528427925804    0.735213326367325    0.302696610547437  0.0000
  O2     O2        0.750902559292501    0.283348598525424    0.648235279314179  0.0000
  O2     O2        0.733480920419112    0.743817294469026    0.657780564138171  0.0000
  O2     O2        0.126807181724985    0.273306746041107    0.108611824426818  0.0000
  O2     O2        0.353920175073365    0.730666396430596    0.110322998619352  0.0000
  O2     O2        0.856445801414447    0.288345512649917    0.835773941657209  0.0000
  O2     O2        0.632516631799058    0.748320976405846    0.852398816365699  0.0000
  O2     O2        0.838277152446239    0.778234019365184    0.841630023850741  0.0000
  O3     O3        0.657774066294390    0.216776189144786    0.840001944617306  0.0000
  O3     O3        0.155214878458017    0.792437270433876    0.112998568323646  0.0000
  O2     O2        0.331386953943935    0.225102044055913    0.110384198895701  0.0000
  O3     O3        0.627973181059390    0.480628983357737    0.015911779471929  0.0000
  O2     O2        0.874323012977540    0.538617989698877    0.014375111018549  0.0000
  O2     O2        0.365358385255038    0.466015542992058    0.941092905105227  0.0000
  O3     O3        0.114869209467321    0.532841404656269    0.937084642742803  0.0000
  O3     O3        0.770967657427638    0.288324775881502    0.040958027130723  0.0000
  O2     O2        0.740279740117082    0.715249595462470    0.032659258403706  0.0000
  O2     O2        0.228836150569538    0.308114880830505    0.924913208515587  0.0000
  O3     O3        0.260892932691930    0.718784607750854    0.909695475725612  0.0000
