data_c00806.vasp
_audit_creation_method             Generated by GULP
_audit_author_name                 Salvador R. G. Balestra
_symmetry_space_group_name_H-M     'P 1             '
_symmetry_Int_Tables_number        1

loop_
_symmetry_equiv_pos_site_id
_symmetry_equiv_pos_as_xyz
_cell_length_a                       16.8295
_cell_length_b                        7.5816
_cell_length_c                       10.4789
_cell_angle_alpha                   90.0674
_cell_angle_beta                    90.0305
_cell_angle_gamma                   90.4415

loop_
_atom_site_label
_atom_site_type_symbol
_atom_site_fract_x
_atom_site_fract_y
_atom_site_fract_z
_atom_site_charge
  Ge     Ge        0.556730000000016    0.000000000000000    0.122129999999970  0.0000
  Ge     Ge        0.945139917527435    0.027162157325819    0.115705289579770  0.0000
  Ge     Ge        0.677942998121918    0.279683826298005    0.014167222772706  0.0000
  Ge     Ge        0.335707941699158    0.293670902421618    0.975913720656100  0.0000
  Si     Si        0.049663646840457    0.020173462161954    0.369399948414592  0.0000
  Si     Si        0.451947386855224    0.008000740217533    0.377506576581171  0.0000
  Si     Si        0.956974890985706    0.027246771698923    0.631975494268714  0.0000
  Si     Si        0.554425649286568    0.000793397826194    0.628967993158805  0.0000
  Si     Si        0.449252069207154    0.017185145948728    0.879076404703516  0.0000
  Si     Si        0.059286267142366    0.011859949121602    0.881736843030271  0.0000
  Si     Si        0.153749020542665    0.329766829197994    0.276756875505419  0.0000
  Si     Si        0.350414369156487    0.701645675673583    0.278930649558063  0.0000
  Si     Si        0.855231488886351    0.338955387346762    0.717240415962214  0.0000
  Si     Si        0.653984751103976    0.691651892451965    0.711719406360521  0.0000
  Si     Si        0.836160494291182    0.741854844846074    0.716059858535848  0.0000
  Si     Si        0.673863908500914    0.285747987884254    0.711292007043562  0.0000
  Si     Si        0.166990749041102    0.734401461924838    0.276179228394847  0.0000
  Si     Si        0.335960969835484    0.292400734058823    0.278715352833219  0.0000
  Si     Si        0.827895253188348    0.748753820514982    0.012557896731712  0.0000
  Si     Si        0.171302407457246    0.733536972295071    0.979574501609068  0.0000
  Si     Si        0.357287115138826    0.698581765703007    0.984600423220008  0.0000
  Si     Si        0.149710548732632    0.336139247805026    0.977571829607060  0.0000
  Si     Si        0.644194766750727    0.679162404025384    0.006656695614885  0.0000
  Si     Si        0.861176200601175    0.356892129462106    0.016517768143929  0.0000
  O2     O2        0.091386050619754    0.211586028050921    0.354670929030895  0.0000
  O2     O2        0.408170579768863    0.817423264199874    0.367699008689262  0.0000
  O2     O2        0.918316550307414    0.221297992074329    0.640248451413684  0.0000
  O2     O2        0.595335915971392    0.808038531479598    0.624509906386134  0.0000
  O2     O2        0.887027199435504    0.880294560049026    0.633382549505095  0.0000
  O2     O2        0.622571596638279    0.152211330583249    0.623202593717072  0.0000
  O2     O2        0.116441696735635    0.868591575286817    0.360685670530515  0.0000
  O2     O2        0.387431033408202    0.164307685956383    0.367588445685922  0.0000
  O2     O2        0.006976353323898    0.010399553575149    0.504301319579138  0.0000
  O2     O2        0.494472336341455    0.021358609120741    0.512896399782342  0.0000
  O3     O3        0.983280442320727    0.989580404186381    0.263499344661295  0.0000
  O3     O3        0.518408220167591    0.027832886636509    0.271033091287818  0.0000
  O2     O2        0.018071074136529    0.993109539286795    0.746029207119558  0.0000
  O2     O2        0.503704481625678    0.023899773263491    0.756309381114917  0.0000
  O1     O1        0.641364434394107    0.124667595284585    0.113799234928803  0.0000
  O3     O3        0.858668290740585    0.902601836470536    0.101890187802965  0.0000
  O3     O3        0.376789131646341    0.151149439334993    0.868500931271320  0.0000
  O2     O2        0.135181591912513    0.881152293469627    0.887482051630536  0.0000
  O2     O2        0.414387639352763    0.819645635738832    0.899298220770229  0.0000
  O2     O2        0.086242213818111    0.215731397143608    0.902198655223931  0.0000
  O3     O3        0.581751728687549    0.783764798408040    0.090766591341666  0.0000
  O3     O3        0.926088459144114    0.248873072597263    0.093799977919085  0.0000
  O3     O3        0.496347139221160    0.083270163446251    0.003696670124772  0.0000
  O3     O3        0.003571715372244    0.947150491007122    0.994905361160874  0.0000
  O2     O2        0.136504684126779    0.535393107053532    0.302913361926039  0.0000
  O2     O2        0.366249613926695    0.494089879619513    0.297208410958343  0.0000
  O2     O2        0.871283211742200    0.546349522645624    0.692476317449523  0.0000
  O2     O2        0.639420498357378    0.483072175088459    0.691489662363320  0.0000
  O2     O2        0.243232863690109    0.281655156360849    0.318338712777112  0.0000
  O2     O2        0.259701173721488    0.748328091189153    0.313172017118482  0.0000
  O2     O2        0.766656406559383    0.286596421825221    0.670368642587519  0.0000
  O2     O2        0.744153893642356    0.743075936433109    0.673151738204010  0.0000
  O2     O2        0.142194592041945    0.287263658120884    0.127313112747626  0.0000
  O2     O2        0.370486892543166    0.754783064598147    0.132831221758035  0.0000
  O2     O2        0.864923170097856    0.299465770755604    0.867227819814633  0.0000
  O2     O2        0.635641876178802    0.739677924414686    0.858652074779050  0.0000
  O2     O2        0.839792934240982    0.800043386848555    0.863781732101655  0.0000
  O3     O3        0.669345961213178    0.219336604442950    0.855312728218957  0.0000
  O2     O2        0.157238883658948    0.785337888599610    0.127597852824738  0.0000
  O3     O3        0.344888672195316    0.230243449642981    0.133709391378362  0.0000
  O3     O3        0.626214038842058    0.475461323932640    0.026059791743175  0.0000
  O2     O2        0.875534352148398    0.566105371169581    0.035392711031841  0.0000
  O3     O3        0.379824735434895    0.498985317914289    0.961453884025040  0.0000
  O2     O2        0.130768402172408    0.542508287925957    0.953687002795785  0.0000
  O3     O3        0.774335895022327    0.305815152856522    0.064598355278542  0.0000
  O2     O2        0.735626323121748    0.717588674029934    0.045706583736406  0.0000
  O3     O3        0.237580133385716    0.298240114779104    0.931487541032381  0.0000
  O2     O2        0.264737669595918    0.724335663178223    0.950140369130475  0.0000
