data_c00864.vasp
_audit_creation_method             Generated by GULP
_audit_author_name                 Salvador R. G. Balestra
_symmetry_space_group_name_H-M     'P 1             '
_symmetry_Int_Tables_number        1

loop_
_symmetry_equiv_pos_site_id
_symmetry_equiv_pos_as_xyz
_cell_length_a                       16.9012
_cell_length_b                        7.5532
_cell_length_c                       10.4788
_cell_angle_alpha                   89.5647
_cell_angle_beta                    89.6953
_cell_angle_gamma                   90.0662

loop_
_atom_site_label
_atom_site_type_symbol
_atom_site_fract_x
_atom_site_fract_y
_atom_site_fract_z
_atom_site_charge
  Ge     Ge        0.556730000000016    0.000000000000000    0.122129999999970  0.0000
  Ge     Ge        0.060545113939052    0.041103722752446    0.858775704040413  0.0000
  Ge     Ge        0.146166091505176    0.353309339687936    0.269739901179743  0.0000
  Ge     Ge        0.646316755023883    0.670472974514948    0.019922223361904  0.0000
  Si     Si        0.042638885929168    0.040457431977330    0.353054646491789  0.0000
  Si     Si        0.450971997225624    0.025658308816753    0.371112004239908  0.0000
  Si     Si        0.949117002418275    0.033544759201680    0.611325712094031  0.0000
  Si     Si        0.546380353202831    0.018974248335895    0.629367618947927  0.0000
  Si     Si        0.946836936642802    0.014403752640137    0.096812032275431  0.0000
  Si     Si        0.446612253200240    0.030780485911431    0.882674730421489  0.0000
  Si     Si        0.349400236319846    0.718142450082250    0.272855954591430  0.0000
  Si     Si        0.848701577522230    0.341905343937147    0.700071479786916  0.0000
  Si     Si        0.648451733414744    0.707955294635682    0.717998057749385  0.0000
  Si     Si        0.829490015389205    0.746743263027969    0.712678287951969  0.0000
  Si     Si        0.666721049748996    0.298863277389738    0.708743618245015  0.0000
  Si     Si        0.166940924097204    0.769681498169500    0.263119786967154  0.0000
  Si     Si        0.331157903175398    0.310980504610075    0.277629564105976  0.0000
  Si     Si        0.673453393919320    0.267684111660644    0.004810586463513  0.0000
  Si     Si        0.831313559756447    0.729865620522194    0.011965217602412  0.0000
  Si     Si        0.331981569522513    0.310503035252650    0.978038434398347  0.0000
  Si     Si        0.174870687381787    0.763781409060233    0.967721617503116  0.0000
  Si     Si        0.357320257225075    0.707495880518553    0.977640880250744  0.0000
  Si     Si        0.149335441022394    0.361710951599110    0.968757905824250  0.0000
  Si     Si        0.856102304899070    0.335622325912319    0.995433811916917  0.0000
  O3     O3        0.076338220981960    0.237928822443634    0.357288425696076  0.0000
  O2     O2        0.409326364812044    0.834264088630259    0.355648443448168  0.0000
  O2     O2        0.908669371716689    0.228375701022878    0.613528169761437  0.0000
  O2     O2        0.587301855337975    0.825827128788851    0.635705524657453  0.0000
  O2     O2        0.880839352126595    0.888129208225781    0.634514553864928  0.0000
  O2     O2        0.614578271641216    0.169608600316612    0.621622172282416  0.0000
  O2     O2        0.119637372405822    0.912553065180999    0.346586599684432  0.0000
  O2     O2        0.385337740346217    0.179139858310056    0.359366021302807  0.0000
  O2     O2        0.988841808625189    0.999166642573372    0.475252742155964  0.0000
  O2     O2        0.491070505002366    0.032359568221682    0.507776566670194  0.0000
  O2     O2        0.988456372475996    0.003230671836473    0.231758001900231  0.0000
  O3     O3        0.519213614264855    0.055526971792275    0.267566578261808  0.0000
  O3     O3        0.018197679903068    0.016473735623020    0.713183370630144  0.0000
  O2     O2        0.490323097000361    0.056282008807959    0.749483169438755  0.0000
  O3     O3        0.646316870357163    0.108528173624318    0.092609729871323  0.0000
  O2     O2        0.874749659013558    0.874694234338223    0.097456364296878  0.0000
  O2     O2        0.371598992771028    0.163089537717735    0.889648971241366  0.0000
  O3     O3        0.141876716821295    0.901588951529849    0.868043066127223  0.0000
  O2     O2        0.418404860936896    0.825462615878274    0.895396548503938  0.0000
  O3     O3        0.091992752435876    0.257238866542441    0.875667797621664  0.0000
  O1     O1        0.579708471712141    0.780704034345042    0.112690415076044  0.0000
  O2     O2        0.915711708365506    0.215157328485863    0.075983493543831  0.0000
  O3     O3        0.500152086505240    0.083934389177315    0.000144967054905  0.0000
  O3     O3        0.002872728242299    0.961218417881081    0.981384605918867  0.0000
  O3     O3        0.131857268031943    0.576783062159316    0.289361644505138  0.0000
  O2     O2        0.361783331074017    0.511091273095446    0.302053460954396  0.0000
  O2     O2        0.862570196555996    0.551180124462171    0.679639751355091  0.0000
  O2     O2        0.634310427926925    0.498959607310689    0.694612784562885  0.0000
  O3     O3        0.240588225405373    0.297471748051779    0.318853345237356  0.0000
  O2     O2        0.259234720858884    0.772448083524532    0.303332900229207  0.0000
  O2     O2        0.758502579519203    0.292510464662995    0.665267765298331  0.0000
  O2     O2        0.737608240023767    0.759331389547130    0.673491449515389  0.0000
  O3     O3        0.131763925715127    0.296952239032167    0.112371361819161  0.0000
  O2     O2        0.371742412956443    0.759104096393724    0.125356470763456  0.0000
  O2     O2        0.869469020905489    0.289986417664601    0.846153289824970  0.0000
  O3     O3        0.634233718988300    0.748993100899983    0.865207233851903  0.0000
  O2     O2        0.834529760137798    0.787270415865176    0.862843861387794  0.0000
  O2     O2        0.661075117700687    0.230281409557441    0.854136543550897  0.0000
  O2     O2        0.161246515114093    0.824779260459037    0.114099535629703  0.0000
  O2     O2        0.337922222465267    0.261421961210667    0.127936376600059  0.0000
  O3     O3        0.627367071188584    0.448277398304231    0.036623735304280  0.0000
  O2     O2        0.875872480374642    0.539913760667677    0.024415864431011  0.0000
  O2     O2        0.375068450035687    0.500418541189650    0.954607885114641  0.0000
  O2     O2        0.134205918334661    0.571061715356079    0.953051366539257  0.0000
  O2     O2        0.765841538730074    0.299919931814536    0.032615112776089  0.0000
  O3     O3        0.742983991807508    0.714381913668389    0.062068988299144  0.0000
  O2     O2        0.241024453079840    0.320191270497462    0.937069275011830  0.0000
  O2     O2        0.268083243852710    0.748639762165601    0.939197681253068  0.0000
