data_c00855.vasp
_audit_creation_method             Generated by GULP
_audit_author_name                 Salvador R. G. Balestra
_symmetry_space_group_name_H-M     'P 1             '
_symmetry_Int_Tables_number        1

loop_
_symmetry_equiv_pos_site_id
_symmetry_equiv_pos_as_xyz
_cell_length_a                       16.9853
_cell_length_b                        7.5844
_cell_length_c                       10.4426
_cell_angle_alpha                   90.2957
_cell_angle_beta                    90.4693
_cell_angle_gamma                   89.6917

loop_
_atom_site_label
_atom_site_type_symbol
_atom_site_fract_x
_atom_site_fract_y
_atom_site_fract_z
_atom_site_charge
  Ge     Ge        0.556730000000016    0.000000000000000    0.122129999999970  0.0000
  Ge     Ge        0.055800817076337    0.973149167227540    0.854763972345159  0.0000
  Ge     Ge        0.160898532503017    0.261555736933159    0.270483518864931  0.0000
  Ge     Ge        0.643231426798443    0.309989306844605    0.713449228938490  0.0000
  Si     Si        0.039495117611796    0.982612063988119    0.352121461453279  0.0000
  Si     Si        0.446031359118969    0.995682068093166    0.368996831101283  0.0000
  Si     Si        0.944538920143407    0.976521019568755    0.608208861865708  0.0000
  Si     Si        0.538888896399137    0.000977474830177    0.629018332394436  0.0000
  Si     Si        0.942763487605470    0.988036018876467    0.093863874213759  0.0000
  Si     Si        0.441667868328829    0.983553892516438    0.883809640017892  0.0000
  Si     Si        0.327231278120969    0.711498991819458    0.271657442503009  0.0000
  Si     Si        0.826881330582121    0.268412716522799    0.705389033708518  0.0000
  Si     Si        0.661403317260139    0.724715155518577    0.719301266089243  0.0000
  Si     Si        0.843081136524920    0.673133578469302    0.708558650907549  0.0000
  Si     Si        0.145227150142308    0.677405407852449    0.264457465437892  0.0000
  Si     Si        0.345870984890069    0.307317981102353    0.280308422477148  0.0000
  Si     Si        0.646326727803128    0.319544929673623    0.016021699513469  0.0000
  Si     Si        0.852560268372490    0.665515840327591    0.005478271452300  0.0000
  Si     Si        0.350552286167394    0.305265866883619    0.980795146105275  0.0000
  Si     Si        0.146986363676486    0.655446675575341    0.968666451622908  0.0000
  Si     Si        0.328319164414840    0.701549623731821    0.972252119160935  0.0000
  Si     Si        0.169098885481707    0.250885614796175    0.969969311289417  0.0000
  Si     Si        0.670771637247662    0.720169282000753    0.015450944939560  0.0000
  Si     Si        0.827688237336142    0.270869942217148    0.006926489129170  0.0000
  O3     O3        0.103935362285383    0.134117865685002    0.367955793468188  0.0000
  O2     O2        0.376148506300472    0.854174805863741    0.351750328698458  0.0000
  O2     O2        0.882759314593221    0.135575292922630    0.628523863010476  0.0000
  O2     O2        0.613746783770641    0.867744290695918    0.636163122105236  0.0000
  O2     O2        0.900846575570186    0.789700555329433    0.623864311151142  0.0000
  O3     O3        0.574066521974241    0.195527177930343    0.625578355625089  0.0000
  O2     O2        0.085860800763740    0.796348374257293    0.346983766410249  0.0000
  O2     O2        0.409174312540170    0.192837929086153    0.360654487922533  0.0000
  O2     O2        0.977235996748000    0.983847727411243    0.465374461257765  0.0000
  O2     O2        0.485676094722185    0.963861236844639    0.505781125567077  0.0000
  O2     O2        0.991855549132338    0.019431892811356    0.221720244013967  0.0000
  O3     O3        0.513896304742830    0.968698084743696    0.266761429066917  0.0000
  O3     O3        0.017751054543842    0.992739130581083    0.703739547960446  0.0000
  O2     O2        0.483134009054579    0.968476982239348    0.748972288698294  0.0000
  O3     O3        0.589067655319261    0.214614311397274    0.108184601700198  0.0000
  O2     O2        0.913072696771270    0.784968859643415    0.086940828562554  0.0000
  O2     O2        0.411726690344933    0.185078695779658    0.903111265453564  0.0000
  O3     O3        0.088621104463940    0.758924819409864    0.876499910579789  0.0000
  O2     O2        0.368991371442882    0.846630292876181    0.884657325009366  0.0000
  O3     O3        0.133306888831654    0.119522337718640    0.867517694435620  0.0000
  O3     O3        0.636987884372120    0.858353509512401    0.113808553540006  0.0000
  O2     O2        0.868491418948405    0.122150923639095    0.092952620999855  0.0000
  O3     O3        0.497730232666660    0.928096837588623    0.998919948004705  0.0000
  O3     O3        0.991205100430143    0.039940057636012    0.970174585669592  0.0000
  O3     O3        0.128510051435318    0.475548303435241    0.289470201716101  0.0000
  O2     O2        0.358226506467204    0.515631453201950    0.306696297880299  0.0000
  O2     O2        0.856665813241472    0.467246920246794    0.678383658484411  0.0000
  O3     O3        0.627215083742380    0.532388783819016    0.693827262233106  0.0000
  O3     O3        0.258671181600234    0.252744190714537    0.317026234193545  0.0000
  O2     O2        0.234967350829740    0.726660545272685    0.305035822397939  0.0000
  O3     O3        0.736919324692156    0.253809130567609    0.662577321712913  0.0000
  O2     O2        0.753011881165506    0.726208562514218    0.678393248332994  0.0000
  O3     O3        0.154685643914717    0.186960837051749    0.114369475941877  0.0000
  O2     O2        0.338342337066563    0.751642460773233    0.121687921584859  0.0000
  O2     O2        0.831915716722573    0.224388453191334    0.856352474806833  0.0000
  O2     O2        0.656254449557949    0.780343085467579    0.868555756327451  0.0000
  O2     O2        0.865531489937079    0.712911280254337    0.856435754539686  0.0000
  O3     O3        0.629783122372746    0.254424974114286    0.871731388902939  0.0000
  O2     O2        0.132001212518590    0.721722255161475    0.114152109541275  0.0000
  O2     O2        0.363134766628466    0.265836423178161    0.131088772214494  0.0000
  O2     O2        0.630796095209938    0.528238360151874    0.030959450022668  0.0000
  O2     O2        0.870387302326285    0.459467520128104    0.031231892423215  0.0000
  O2     O2        0.367818144070850    0.509249588892367    0.948816956840757  0.0000
  O2     O2        0.131593552142339    0.447109209249657    0.958169082555065  0.0000
  O2     O2        0.737527493736517    0.279306209927193    0.050184861977258  0.0000
  O2     O2        0.763637022282373    0.706824143619964    0.044235826902603  0.0000
  O2     O2        0.261949457637193    0.259251887777187    0.941980148736413  0.0000
  O2     O2        0.237018584226747    0.697667686823233    0.932255319866193  0.0000
