data_c00867.vasp
_audit_creation_method             Generated by GULP
_audit_author_name                 Salvador R. G. Balestra
_symmetry_space_group_name_H-M     'P 1             '
_symmetry_Int_Tables_number        1

loop_
_symmetry_equiv_pos_site_id
_symmetry_equiv_pos_as_xyz
_cell_length_a                       17.0018
_cell_length_b                        7.5717
_cell_length_c                       10.4377
_cell_angle_alpha                   90.7770
_cell_angle_beta                    89.2196
_cell_angle_gamma                   89.5819

loop_
_atom_site_label
_atom_site_type_symbol
_atom_site_fract_x
_atom_site_fract_y
_atom_site_fract_z
_atom_site_charge
  Ge     Ge        0.556730000000016    0.000000000000000    0.122129999999970  0.0000
  Ge     Ge        0.060044129218174    0.972048997317506    0.883826389069208  0.0000
  Ge     Ge        0.332172293677291    0.708846278994200    0.295855031011330  0.0000
  Ge     Ge        0.852601994113733    0.652161681431908    0.716117813227444  0.0000
  Si     Si        0.046317813115788    0.977931209404447    0.370045447378905  0.0000
  Si     Si        0.452767195011108    0.989373115632252    0.382594607931254  0.0000
  Si     Si        0.954746680671957    0.960528692814462    0.630918014124051  0.0000
  Si     Si        0.549476805752183    0.987802088513495    0.638067254005270  0.0000
  Si     Si        0.944076040702027    0.987908177639536    0.121823165672530  0.0000
  Si     Si        0.445743535189999    0.981551011575379    0.883892054418843  0.0000
  Si     Si        0.167383140773193    0.256025439876148    0.283895628683831  0.0000
  Si     Si        0.832845687715732    0.241562767650682    0.733550104004189  0.0000
  Si     Si        0.668113493948193    0.699756270810456    0.725344495498852  0.0000
  Si     Si        0.652202144241248    0.292576615626178    0.738986518372384  0.0000
  Si     Si        0.148440831881186    0.664177249483076    0.287746837833446  0.0000
  Si     Si        0.349654649447524    0.294994139006078    0.293142826887150  0.0000
  Si     Si        0.649848409171984    0.322387633757677    0.036038691369478  0.0000
  Si     Si        0.857235420740583    0.665326748340966    0.019877746877319  0.0000
  Si     Si        0.356675229537014    0.302371018030716    0.995695677157560  0.0000
  Si     Si        0.152769970093375    0.652192319929022    0.988551820844501  0.0000
  Si     Si        0.333938243601562    0.704475785952588    0.991279181726673  0.0000
  Si     Si        0.175315784332231    0.252022741436573    0.986796742041304  0.0000
  Si     Si        0.675193555708177    0.720088679185363    0.023774181639037  0.0000
  Si     Si        0.831016691765251    0.269291049745725    0.033540516526813  0.0000
  O2     O2        0.116541120584533    0.120729129598956    0.367138418233929  0.0000
  O3     O3        0.386552180810003    0.841482931471845    0.394252297154690  0.0000
  O2     O2        0.878374821977962    0.084822748841167    0.659182982519154  0.0000
  O2     O2        0.611569934306015    0.826404683518269    0.645134680484647  0.0000
  O3     O3        0.921420404917703    0.763820183597286    0.626633799762828  0.0000
  O2     O2        0.592656046510751    0.174280181918667    0.658032242073524  0.0000
  O2     O2        0.083299989346599    0.780230521995896    0.365717256772106  0.0000
  O2     O2        0.407674035612558    0.177727488001996    0.377335016674066  0.0000
  O2     O2        0.995565573876315    0.008988211303581    0.497505121639988  0.0000
  O2     O2        0.512759510687843    0.987920164329253    0.498544879860644  0.0000
  O2     O2        0.987878117416016    0.008306798396336    0.254258858184741  0.0000
  O3     O3        0.502762782845019    0.950531989806619    0.254373203252924  0.0000
  O3     O3        0.020398208796303    0.991394075979469    0.736326607531793  0.0000
  O2     O2        0.478957891721040    0.965976356159042    0.740143255668994  0.0000
  O3     O3        0.588795488393446    0.216818801935337    0.122294650729905  0.0000
  O2     O2        0.914771614182742    0.786090471283087    0.104792095308174  0.0000
  O2     O2        0.416655207575244    0.183482500551940    0.911143605063397  0.0000
  O3     O3        0.092573265078671    0.757477964625516    0.903613643242895  0.0000
  O2     O2        0.374574653819889    0.842450696756761    0.896516009849457  0.0000
  O3     O3        0.140270693266802    0.111216665417593    0.891786397153881  0.0000
  O3     O3        0.640124830526856    0.866846415876760    0.116263871797031  0.0000
  O2     O2        0.870755982863285    0.125526824080937    0.123761265997010  0.0000
  O3     O3        0.510127330793608    0.930694687126720    0.985587339925673  0.0000
  O3     O3        0.998336064379191    0.044591462994570    0.004230883527842  0.0000
  O2     O2        0.136351659395246    0.455438373114506    0.311030291465731  0.0000
  O3     O3        0.364125826633380    0.496616581201561    0.323777220596745  0.0000
  O3     O3        0.867537347249263    0.428601560381078    0.694264227013754  0.0000
  O2     O2        0.638075928325762    0.498358044191882    0.709472669291044  0.0000
  O2     O2        0.258923573580296    0.242290068371299    0.322116213015600  0.0000
  O3     O3        0.233581749838972    0.721044226032296    0.334615045891452  0.0000
  O2     O2        0.740800189489301    0.236814210837532    0.698026693504373  0.0000
  O3     O3        0.757518275207526    0.707837588830809    0.676332150440208  0.0000
  O2     O2        0.159721084270289    0.200613784282036    0.135034888479356  0.0000
  O3     O3        0.343981005814067    0.766871231793306    0.137368461740208  0.0000
  O2     O2        0.840533667192159    0.210625288949891    0.885268906432537  0.0000
  O2     O2        0.665669198470372    0.763230208203653    0.873443065262975  0.0000
  O3     O3        0.874959673231392    0.708373481003818    0.872742676047547  0.0000
  O2     O2        0.637086555698230    0.256613281945099    0.889180635233572  0.0000
  O2     O2        0.138930758577778    0.706179986167697    0.137573342955487  0.0000
  O2     O2        0.371160538477021    0.253630784043250    0.143713655535470  0.0000
  O2     O2        0.634053692788813    0.531146940587325    0.050877594033635  0.0000
  O2     O2        0.872986190354143    0.459480587815046    0.050718564218673  0.0000
  O2     O2        0.373371222765377    0.509267963308684    0.974181176409963  0.0000
  O2     O2        0.137500441438138    0.445242667202393    0.964727613766572  0.0000
  O2     O2        0.739663090987440    0.280477144229474    0.074180655333935  0.0000
  O2     O2        0.767169712264530    0.708471246051622    0.053736159602909  0.0000
  O2     O2        0.268202218588725    0.258654083819661    0.958103386949951  0.0000
  O2     O2        0.242793328637810    0.698074554563009    0.953161306327966  0.0000
