data_c00852.vasp
_audit_creation_method             Generated by GULP
_audit_author_name                 Salvador R. G. Balestra
_symmetry_space_group_name_H-M     'P 1             '
_symmetry_Int_Tables_number        1

loop_
_symmetry_equiv_pos_site_id
_symmetry_equiv_pos_as_xyz
_cell_length_a                       16.9489
_cell_length_b                        7.5612
_cell_length_c                       10.4905
_cell_angle_alpha                   89.3521
_cell_angle_beta                    89.8681
_cell_angle_gamma                   90.1208

loop_
_atom_site_label
_atom_site_type_symbol
_atom_site_fract_x
_atom_site_fract_y
_atom_site_fract_z
_atom_site_charge
  Ge     Ge        0.556730000000016    0.000000000000000    0.122129999999970  0.0000
  Ge     Ge        0.054922745889610    0.031263139001257    0.869282420006826  0.0000
  Ge     Ge        0.144601223651321    0.338645699776064    0.276898324048836  0.0000
  Ge     Ge        0.847312368486131    0.346620160666032    0.701234398225454  0.0000
  Si     Si        0.040771615250783    0.026331520982646    0.360841364402297  0.0000
  Si     Si        0.449291659543626    0.011805391232435    0.372504579005911  0.0000
  Si     Si        0.947928602713920    0.035211869815196    0.616356522555259  0.0000
  Si     Si        0.540572932807972    0.017719995884183    0.635051069270481  0.0000
  Si     Si        0.941544666810979    0.013050000097010    0.107720240767424  0.0000
  Si     Si        0.441016951384336    0.021225017669194    0.886750519654436  0.0000
  Si     Si        0.346224453524209    0.705927774906070    0.277877759179376  0.0000
  Si     Si        0.644684305079745    0.708809948295733    0.725862963739529  0.0000
  Si     Si        0.825951705927002    0.758035792274118    0.718464893160380  0.0000
  Si     Si        0.661354557827786    0.300615382873401    0.712208753650225  0.0000
  Si     Si        0.164262518659124    0.755024887042662    0.269856618033650  0.0000
  Si     Si        0.328869337738480    0.299135565346907    0.281764463533722  0.0000
  Si     Si        0.671184123201777    0.279102982137965    0.007849648487290  0.0000
  Si     Si        0.827884148631435    0.731882670393353    0.016902441292635  0.0000
  Si     Si        0.327105404309090    0.301360998772859    0.982207673984776  0.0000
  Si     Si        0.170342763666949    0.752317768975253    0.974927789409538  0.0000
  Si     Si        0.352317264435452    0.697671658861968    0.982374682404684  0.0000
  Si     Si        0.145215067306355    0.350579516041489    0.975895543181401  0.0000
  Si     Si        0.646238316348166    0.677941421256511    0.021248591690991  0.0000
  Si     Si        0.854663547816018    0.335304277589225    0.002225453097146  0.0000
  O3     O3        0.075482698834092    0.222869679695687    0.365228539300539  0.0000
  O2     O2        0.406074307574126    0.821996795883339    0.360414486552793  0.0000
  O3     O3        0.914604700901308    0.233100272972941    0.610130110756827  0.0000
  O2     O2        0.583650015153147    0.828047461809810    0.646328020707950  0.0000
  O2     O2        0.870823260555493    0.913517909205712    0.643203422688715  0.0000
  O2     O2        0.605646567727903    0.174060658643770    0.629435268206531  0.0000
  O2     O2        0.116535998700985    0.896873981273643    0.352246397826391  0.0000
  O2     O2        0.384935487466894    0.166905922213910    0.359095896603578  0.0000
  O2     O2        0.989397658735949    0.981885354167641    0.485071395585564  0.0000
  O2     O2        0.488828709320250    0.022947006136020    0.509365522470592  0.0000
  O2     O2        0.983656836726252    0.995699774864747    0.242076689831882  0.0000
  O3     O3        0.517773427376363    0.034491883530418    0.269329905640315  0.0000
  O3     O3        0.012874878485174    0.005225217000699    0.723944028927223  0.0000
  O2     O2        0.481741327364159    0.049452330859309    0.751682250102023  0.0000
  O3     O3        0.639514400900453    0.132416386727896    0.102434734805150  0.0000
  O2     O2        0.868250280740382    0.875418884251437    0.106897329882134  0.0000
  O2     O2        0.366562491107230    0.153478279481823    0.895463627373436  0.0000
  O3     O3        0.135530967766325    0.890687501345849    0.877302801393629  0.0000
  O2     O2        0.412497055530243    0.816845405356825    0.899860763507127  0.0000
  O3     O3        0.086987141993751    0.247168205647719    0.884132570725296  0.0000
  O3     O3        0.586571814426523    0.782043254436472    0.109529968657058  0.0000
  O2     O2        0.912061824858727    0.215388759999498    0.089066206949577  0.0000
  O3     O3        0.496572998834199    0.073447424957453    0.002062703823771  0.0000
  O3     O3        0.996752506118034    0.957100131806115    0.992539969608194  0.0000
  O3     O3        0.129972654295563    0.561726218625104    0.296611592025140  0.0000
  O2     O2        0.358902969315830    0.499054326254444    0.307208812534862  0.0000
  O3     O3        0.860451960689825    0.570455561548650    0.678416906523050  0.0000
  O2     O2        0.631390823228308    0.502691800175620    0.696040875108034  0.0000
  O3     O3        0.238992828956758    0.283048200707501    0.325245053613144  0.0000
  O2     O2        0.256393295987522    0.759290929096007    0.309634236221176  0.0000
  O3     O3        0.751205863026681    0.290689065939240    0.666406449536808  0.0000
  O2     O2        0.733162541265625    0.764843993957725    0.684991723453282  0.0000
  O3     O3        0.129217730029002    0.284170134332874    0.119651423367501  0.0000
  O2     O2        0.367030855099421    0.746919221000866    0.130074959570722  0.0000
  O3     O3        0.873733418177306    0.292239611468577    0.856350325662008  0.0000
  O2     O2        0.631043274238750    0.743975005537132    0.875650525159327  0.0000
  O2     O2        0.836253848722374    0.789596847002497    0.869215366713956  0.0000
  O2     O2        0.656771188675323    0.234803323567296    0.859195576506063  0.0000
  O2     O2        0.157768006892123    0.811518485128419    0.121370981453736  0.0000
  O2     O2        0.333393657400297    0.252970016498191    0.131884376588488  0.0000
  O2     O2        0.630922460180918    0.468922485188750    0.036314056159655  0.0000
  O2     O2        0.870125957650943    0.541063475125884    0.034152348999367  0.0000
  O2     O2        0.369705140245683    0.491248250511499    0.957831828248410  0.0000
  O2     O2        0.129740367352971    0.559678782089138    0.960742831948779  0.0000
  O2     O2        0.764269122513894    0.291211964078693    0.031078900618288  0.0000
  O2     O2        0.736692128827862    0.720793828254988    0.057543340782768  0.0000
  O2     O2        0.236217461983515    0.309894652605833    0.941529754886206  0.0000
  O2     O2        0.263014051958765    0.738782480434414    0.944621504211832  0.0000
