data_c00859.vasp
_audit_creation_method             Generated by GULP
_audit_author_name                 Salvador R. G. Balestra
_symmetry_space_group_name_H-M     'P 1             '
_symmetry_Int_Tables_number        1

loop_
_symmetry_equiv_pos_site_id
_symmetry_equiv_pos_as_xyz
_cell_length_a                       16.8813
_cell_length_b                        7.5833
_cell_length_c                       10.4723
_cell_angle_alpha                   89.9890
_cell_angle_beta                    90.0894
_cell_angle_gamma                   90.0549

loop_
_atom_site_label
_atom_site_type_symbol
_atom_site_fract_x
_atom_site_fract_y
_atom_site_fract_z
_atom_site_charge
  Ge     Ge        0.556730000000016    0.000000000000000    0.122129999999970  0.0000
  Ge     Ge        0.052238610583914    0.025248633335620    0.870563337480080  0.0000
  Ge     Ge        0.148260176682814    0.342044389226578    0.280281256798897  0.0000
  Ge     Ge        0.827028101336646    0.738666110718622    0.017745490195618  0.0000
  Si     Si        0.044852763870997    0.033716701597993    0.364347183547355  0.0000
  Si     Si        0.452600044652328    0.013695927550376    0.373925438771037  0.0000
  Si     Si        0.945453240811683    0.021214262304101    0.616656375568312  0.0000
  Si     Si        0.544234022191560    0.005108046605092    0.636821338006034  0.0000
  Si     Si        0.942257250845757    0.018285292677354    0.111520169720667  0.0000
  Si     Si        0.441531684992768    0.021106826990399    0.886879444486347  0.0000
  Si     Si        0.348576153342858    0.708468855479141    0.277053619965985  0.0000
  Si     Si        0.846887254313045    0.331575333475106    0.710766563326663  0.0000
  Si     Si        0.646494244853214    0.691805543630974    0.720669559072907  0.0000
  Si     Si        0.827416396674033    0.738229542045771    0.713934224993243  0.0000
  Si     Si        0.664267993033942    0.287782123857899    0.716914647432687  0.0000
  Si     Si        0.165310615373098    0.756247224176823    0.273396198513040  0.0000
  Si     Si        0.333416188520695    0.302865887991785    0.280052486318267  0.0000
  Si     Si        0.671745923959643    0.278443246085514    0.012748256676707  0.0000
  Si     Si        0.328192607113965    0.302744673683229    0.980011764135655  0.0000
  Si     Si        0.168640239010389    0.747854260125703    0.977916404784205  0.0000
  Si     Si        0.351930454967645    0.699179191004932    0.981432125918511  0.0000
  Si     Si        0.145112203315312    0.345732055896562    0.978815619649692  0.0000
  Si     Si        0.643215174656874    0.672728302572239    0.020150688676538  0.0000
  Si     Si        0.855870605922781    0.338651518916606    0.005457246555097  0.0000
  O3     O3        0.081827401696670    0.226841601287503    0.373152960849475  0.0000
  O2     O2        0.407978643577963    0.826384673434867    0.360124742330900  0.0000
  O2     O2        0.905372932325404    0.215691946249339    0.623566039046782  0.0000
  O2     O2        0.583513296197469    0.810956765062241    0.644321779449843  0.0000
  O2     O2        0.877504924243452    0.872406530552378    0.627453664818235  0.0000
  O2     O2        0.613801619339315    0.151758872462658    0.632212102312076  0.0000
  O2     O2        0.118873213231814    0.897673045718751    0.359299543231539  0.0000
  O2     O2        0.390109887411264    0.172173772039154    0.357473031423108  0.0000
  O2     O2        0.987711799487554    0.995192277093226    0.481819089699197  0.0000
  O2     O2        0.490653147838449    0.021791792281179    0.512847957489841  0.0000
  O2     O2        0.993471539023056    0.007839313291769    0.237678366728195  0.0000
  O3     O3        0.522737382621160    0.032261995645884    0.273255898928974  0.0000
  O3     O3        0.012289315546594    0.998524347678748    0.722476460412883  0.0000
  O2     O2        0.487720194152676    0.042568202022126    0.755911406846240  0.0000
  O3     O3        0.641671686083749    0.126875213784963    0.103466496043552  0.0000
  O3     O3        0.867162795938862    0.890745783144990    0.120021228403032  0.0000
  O2     O2        0.367869485239998    0.157047365561351    0.890054858585505  0.0000
  O3     O3        0.132441386317906    0.883406923819981    0.880439937598492  0.0000
  O2     O2        0.410804479788535    0.818904242912388    0.897810475065661  0.0000
  O3     O3        0.085424679754871    0.239512293426350    0.889591255603577  0.0000
  O3     O3        0.579033976398641    0.780039789148773    0.098768807621863  0.0000
  O2     O2        0.914297384488312    0.220283712927816    0.090101227449083  0.0000
  O3     O3        0.493949326152853    0.077182807432551    0.006578897339167  0.0000
  O3     O3        0.989593762565946    0.951933520432765    0.988064745260904  0.0000
  O3     O3        0.131399014702857    0.563680391091073    0.300374532085795  0.0000
  O2     O2        0.363386357700557    0.502860178292284    0.304929764280553  0.0000
  O2     O2        0.860711473176157    0.540118201571715    0.691235723796900  0.0000
  O2     O2        0.630775306525141    0.485054617838729    0.693962194372720  0.0000
  O3     O3        0.243740567564957    0.287999587492905    0.325600139364672  0.0000
  O2     O2        0.258344777391211    0.759101310760844    0.310161199441910  0.0000
  O2     O2        0.756429088075350    0.281545712335022    0.676694819416306  0.0000
  O2     O2        0.734829443147311    0.742965085355327    0.674571005007555  0.0000
  O3     O3        0.131329349652354    0.283133348092505    0.123526072660729  0.0000
  O2     O2        0.368170466416777    0.749903818569346    0.129142066196988  0.0000
  O2     O2        0.868585559026919    0.283027274510462    0.857084842083325  0.0000
  O2     O2        0.637983334606564    0.730221343782997    0.871079518254385  0.0000
  O3     O3        0.834807993152917    0.799295784756325    0.859271695753902  0.0000
  O2     O2        0.657888240709827    0.228165854841320    0.864187832285788  0.0000
  O2     O2        0.156307741481632    0.809750177178781    0.124653171602285  0.0000
  O2     O2        0.336730612002272    0.255048817419840    0.129662548786730  0.0000
  O2     O2        0.627269865788737    0.464373098524984    0.038226876359466  0.0000
  O3     O3        0.876394177137912    0.539190760294744    0.030612371796795  0.0000
  O2     O2        0.369384452169332    0.493228841981176    0.955546918865627  0.0000
  O2     O2        0.129119420676528    0.554276156648651    0.964267054488630  0.0000
  O2     O2        0.764485633796572    0.305982848714682    0.040492033070654  0.0000
  O3     O3        0.730707572141777    0.720651589829663    0.067291725140324  0.0000
  O2     O2        0.236292631299411    0.306918305671335    0.941808302035868  0.0000
  O2     O2        0.261588824219263    0.738040055626167    0.946473891178003  0.0000
