data_c00895.vasp
_audit_creation_method             Generated by GULP
_audit_author_name                 Salvador R. G. Balestra
_symmetry_space_group_name_H-M     'P 1             '
_symmetry_Int_Tables_number        1

loop_
_symmetry_equiv_pos_site_id
_symmetry_equiv_pos_as_xyz
_cell_length_a                       17.0965
_cell_length_b                        7.6237
_cell_length_c                       10.3660
_cell_angle_alpha                   90.0880
_cell_angle_beta                    90.4799
_cell_angle_gamma                   89.4278

loop_
_atom_site_label
_atom_site_type_symbol
_atom_site_fract_x
_atom_site_fract_y
_atom_site_fract_z
_atom_site_charge
  Ge     Ge        0.556730000000016    0.000000000000000    0.122129999999970  0.0000
  Ge     Ge        0.150876291171720    0.314229985371153    0.281763313040409  0.0000
  Ge     Ge        0.352417461250570    0.678445598739470    0.283537416833238  0.0000
  Ge     Ge        0.334872586006668    0.271417749506758    0.974008286752516  0.0000
  Si     Si        0.047742743957263    0.006614527862411    0.370008142184277  0.0000
  Si     Si        0.456330695034278    0.985992931382312    0.379456430870313  0.0000
  Si     Si        0.953672842105901    0.994492500703326    0.630421915013490  0.0000
  Si     Si        0.555526989011079    0.990444006719824    0.635184234171998  0.0000
  Si     Si        0.946181073058196    0.999929990116625    0.114844753330417  0.0000
  Si     Si        0.445134239863037    0.989529540542205    0.878501931825025  0.0000
  Si     Si        0.059765348147557    0.002973205199751    0.879459428451850  0.0000
  Si     Si        0.850522312608170    0.303823417458347    0.718519985719273  0.0000
  Si     Si        0.659274326572138    0.684061269550113    0.714295725147358  0.0000
  Si     Si        0.839300928374199    0.706233567901671    0.717947955706793  0.0000
  Si     Si        0.669457708182204    0.279506723633239    0.718509077083763  0.0000
  Si     Si        0.169557782022536    0.724397579245798    0.282021247588005  0.0000
  Si     Si        0.335707100355062    0.265886368165774    0.279947489391693  0.0000
  Si     Si        0.671281000360152    0.283292554484409    0.017522154347886  0.0000
  Si     Si        0.836121560364180    0.712322081614881    0.019503499408605  0.0000
  Si     Si        0.171747849351268    0.715938855208788    0.979175727308381  0.0000
  Si     Si        0.354606720332569    0.674632611424097    0.976245515180596  0.0000
  Si     Si        0.148381968772950    0.318375597629172    0.978753970303905  0.0000
  Si     Si        0.655515827275413    0.683719370882041    0.014252220550727  0.0000
  Si     Si        0.852264565573671    0.314888657489752    0.018573662836984  0.0000
  O3     O3        0.086912789760951    0.195810709804275    0.373536844536400  0.0000
  O3     O3        0.420391632414664    0.793314433915082    0.370901263319717  0.0000
  O2     O2        0.907941138892919    0.180821213671044    0.635848464584378  0.0000
  O2     O2        0.602151732839009    0.804805092069030    0.626878279853254  0.0000
  O2     O2        0.891235919319017    0.838158049738499    0.636373955669395  0.0000
  O2     O2        0.617720601996744    0.148589564822549    0.632772524144825  0.0000
  O2     O2        0.117151142151968    0.862910748274170    0.359905711457172  0.0000
  O2     O2        0.385729746668700    0.126355865753704    0.363544148562216  0.0000
  O2     O2        0.998619336999440    0.976104636477710    0.497628098015920  0.0000
  O2     O2        0.495869819679177    0.012427833422920    0.518363310962341  0.0000
  O2     O2        0.989430306311514    0.983655054489141    0.249956649363720  0.0000
  O3     O3        0.523381512989665    0.014325057064820    0.276024207133964  0.0000
  O2     O2        0.017124711966451    0.976927488845353    0.743979049764105  0.0000
  O2     O2        0.505924236778103    0.998224441271139    0.764672749140149  0.0000
  O3     O3        0.630277289778500    0.152167860906811    0.111242926297022  0.0000
  O2     O2        0.879263588618016    0.852807689169794    0.108712507884105  0.0000
  O3     O3        0.374453687225651    0.127415489656161    0.864586918192208  0.0000
  O2     O2        0.130224366432004    0.860974057210672    0.889722382050586  0.0000
  O2     O2        0.410374394176692    0.794105957605592    0.889110053965334  0.0000
  O2     O2        0.092625902242339    0.200845410423444    0.886916926097350  0.0000
  O3     O3        0.595259319437584    0.792379092489647    0.097206914152464  0.0000
  O2     O2        0.908282361083121    0.194248359256771    0.106129037646049  0.0000
  O3     O3        0.485247197428100    0.050042864059394    0.011891598224092  0.0000
  O2     O2        0.003158717581119    0.961860097407800    0.996945986820964  0.0000
  O3     O3        0.151967723812008    0.529552253580049    0.330852269031667  0.0000
  O3     O3        0.351830024129773    0.462248059067075    0.329370113608270  0.0000
  O2     O2        0.867269005477077    0.507270030532411    0.688212523098036  0.0000
  O2     O2        0.641834861568966    0.479173494807498    0.689574783055517  0.0000
  O3     O3        0.244298066491748    0.227285685037011    0.292345390711614  0.0000
  O3     O3        0.260025996743220    0.766334211630202    0.304221444706502  0.0000
  O2     O2        0.760799831200261    0.258115054098884    0.683601535334194  0.0000
  O2     O2        0.748511494195744    0.726602847472277    0.677292607442770  0.0000
  O3     O3        0.118617768927014    0.299211225450862    0.123823039683004  0.0000
  O3     O3        0.380718552587506    0.696583045044403    0.124331990214118  0.0000
  O2     O2        0.867783310528636    0.267508907364650    0.869168753299523  0.0000
  O2     O2        0.644069152216024    0.732710565137015    0.863407680809479  0.0000
  O2     O2        0.848508707144588    0.753483610947044    0.868681717707275  0.0000
  O2     O2        0.657363204094268    0.229449929795609    0.867980365384075  0.0000
  O2     O2        0.149947527255547    0.738594225825687    0.129080747950040  0.0000
  O3     O3        0.363136301828499    0.245601924289514    0.132913813012202  0.0000
  O2     O2        0.637617352677568    0.479541689775099    0.037180768672848  0.0000
  O2     O2        0.870811762045528    0.517970453040375    0.048476135373154  0.0000
  O3     O3        0.362375089370022    0.478743301723360    0.926656239358093  0.0000
  O2     O2        0.145782388048458    0.521730811126009    0.933269990396129  0.0000
  O2     O2        0.762940989679374    0.277111094222747    0.051314158705284  0.0000
  O2     O2        0.744895043151704    0.724061533281682    0.054388586522061  0.0000
  O3     O3        0.235689819739767    0.245575670889416    0.969472030037871  0.0000
  O2     O2        0.264345422413642    0.738469238780406    0.964449475004009  0.0000
