data_c00865.vasp
_audit_creation_method             Generated by GULP
_audit_author_name                 Salvador R. G. Balestra
_symmetry_space_group_name_H-M     'P 1             '
_symmetry_Int_Tables_number        1

loop_
_symmetry_equiv_pos_site_id
_symmetry_equiv_pos_as_xyz
_cell_length_a                       16.9064
_cell_length_b                        7.5911
_cell_length_c                       10.4392
_cell_angle_alpha                   90.9741
_cell_angle_beta                    90.5343
_cell_angle_gamma                   89.6496

loop_
_atom_site_label
_atom_site_type_symbol
_atom_site_fract_x
_atom_site_fract_y
_atom_site_fract_z
_atom_site_charge
  Ge     Ge        0.556730000000016    0.000000000000000    0.122129999999970  0.0000
  Ge     Ge        0.051205006296230    0.971422799569782    0.868701961752554  0.0000
  Ge     Ge        0.164128608896245    0.257828394792065    0.280418253615118  0.0000
  Ge     Ge        0.827128876395769    0.261003366248528    0.021137966079434  0.0000
  Si     Si        0.045031069193332    0.977102261960889    0.365808538223483  0.0000
  Si     Si        0.452130358623830    0.994098850071049    0.372716403174830  0.0000
  Si     Si        0.943343764262780    0.964196924527104    0.615429227109637  0.0000
  Si     Si        0.543731054847613    0.988866880384965    0.637022092376394  0.0000
  Si     Si        0.943164769498815    0.983245523269368    0.111379437383778  0.0000
  Si     Si        0.440798131779679    0.974277500469074    0.885814502421347  0.0000
  Si     Si        0.332943167848740    0.706912106831899    0.275780309745112  0.0000
  Si     Si        0.826905678374240    0.253144779053845    0.716166471485304  0.0000
  Si     Si        0.663076371139685    0.704901845634674    0.719327034441154  0.0000
  Si     Si        0.845488503558324    0.659201846159897    0.714175176363852  0.0000
  Si     Si        0.646494189538727    0.301574281503694    0.722805890688118  0.0000
  Si     Si        0.150299135692982    0.672803535121000    0.277697307857078  0.0000
  Si     Si        0.350218472584244    0.302611767282408    0.281762583095247  0.0000
  Si     Si        0.643640482391439    0.325544112496640    0.023542910595409  0.0000
  Si     Si        0.856207750120865    0.659750202377837    0.009841895586377  0.0000
  Si     Si        0.349974148523977    0.298076626946710    0.982506891721578  0.0000
  Si     Si        0.145765141559683    0.654151594086473    0.981176413652970  0.0000
  Si     Si        0.328121628257659    0.694999327991132    0.976265541241574  0.0000
  Si     Si        0.167199233204554    0.249462347261773    0.978968981411030  0.0000
  Si     Si        0.671992155357215    0.719053174090195    0.016121400337455  0.0000
  O3     O3        0.108187137671128    0.132244722941483    0.380296524813181  0.0000
  O2     O2        0.383440048728670    0.848723033823715    0.355766920589133  0.0000
  O2     O2        0.877170567207361    0.117134596616978    0.629760053890510  0.0000
  O2     O2        0.612417008758752    0.839536115332543    0.634071629852618  0.0000
  O2     O2        0.902904709500272    0.772153599142419    0.626182989919525  0.0000
  O2     O2        0.583444335183876    0.181597019927508    0.646280668967870  0.0000
  O2     O2        0.093180245792623    0.793023614906951    0.364924507114927  0.0000
  O2     O2        0.414539729947651    0.189380236746529    0.360046300018280  0.0000
  O2     O2        0.980484486243956    0.977532659380236    0.475843980596484  0.0000
  O2     O2        0.491019234290274    0.974564626248773    0.510951112094976  0.0000
  O2     O2        0.999804170950539    0.005619837070619    0.232207769072668  0.0000
  O3     O3        0.520710824653783    0.964180490835139    0.271046166323352  0.0000
  O3     O3        0.013349624021382    0.987370812287491    0.717223886838199  0.0000
  O2     O2        0.485808671841556    0.955020966064285    0.753676439402293  0.0000
  O3     O3        0.579573981903418    0.219239408193204    0.100952191364856  0.0000
  O2     O2        0.914226050445655    0.780915775668000    0.095434744476786  0.0000
  O2     O2        0.409307400907100    0.175434316118587    0.901195767874708  0.0000
  O3     O3        0.084668352523665    0.758623388598360    0.894413875245616  0.0000
  O2     O2        0.368162235475226    0.836490378489958    0.885675413594365  0.0000
  O3     O3        0.129178179221372    0.117717657431325    0.877804343337599  0.0000
  O3     O3        0.642073668317766    0.873227403204894    0.106508506376866  0.0000
  O3     O3        0.868255752111641    0.111204130180905    0.123359414930890  0.0000
  O3     O3        0.495093683585277    0.920464546003478    0.004010603927014  0.0000
  O3     O3        0.985966052758046    0.044126756957861    0.983017784001106  0.0000
  O3     O3        0.132457908214448    0.472139738749595    0.302628977484612  0.0000
  O2     O2        0.364158625936860    0.510705430503204    0.307198675130446  0.0000
  O2     O2        0.859810972293983    0.450514921358683    0.694213200265993  0.0000
  O2     O2        0.629980659171442    0.507404015666704    0.695983714118527  0.0000
  O3     O3        0.263178333286941    0.248977357703604    0.322024434739032  0.0000
  O2     O2        0.241076919077131    0.721384224399990    0.314269241439264  0.0000
  O2     O2        0.734373946208585    0.248670905343141    0.675812624786551  0.0000
  O2     O2        0.755042142980968    0.709309735863678    0.679900062115691  0.0000
  O3     O3        0.154521181984263    0.185951427113970    0.123556669643734  0.0000
  O2     O2        0.340897466814266    0.747588973110997    0.125489440695183  0.0000
  O3     O3        0.834108279431677    0.196343348879709    0.862151074793464  0.0000
  O2     O2        0.657069295563926    0.766781135387876    0.867229993597313  0.0000
  O2     O2        0.868121998553077    0.711198910643559    0.860826916148544  0.0000
  O2     O2        0.638878355438286    0.266074384823011    0.873639690904818  0.0000
  O2     O2        0.134434670855386    0.717819998604276    0.128542388806501  0.0000
  O2     O2        0.365142768788213    0.257857113946860    0.131918586165562  0.0000
  O2     O2        0.627690866066623    0.534314352202629    0.041842657404387  0.0000
  O3     O3        0.876808537168506    0.459678489428111    0.034886065559067  0.0000
  O2     O2        0.366774781025355    0.501769701673470    0.951440536436343  0.0000
  O2     O2        0.129877248316820    0.445892152260818    0.968731567209196  0.0000
  O3     O3        0.731221566967921    0.279092876264474    0.071572642693264  0.0000
  O2     O2        0.764734872806684    0.691639381033918    0.043974113657853  0.0000
  O2     O2        0.260032308528558    0.254741764758580    0.947677192080501  0.0000
  O2     O2        0.235622373590754    0.694398302993222    0.940233982475560  0.0000
