data_c00886.vasp
_audit_creation_method             Generated by GULP
_audit_author_name                 Salvador R. G. Balestra
_symmetry_space_group_name_H-M     'P 1             '
_symmetry_Int_Tables_number        1

loop_
_symmetry_equiv_pos_site_id
_symmetry_equiv_pos_as_xyz
_cell_length_a                       16.8476
_cell_length_b                        7.5548
_cell_length_c                       10.4917
_cell_angle_alpha                   90.0888
_cell_angle_beta                    90.3013
_cell_angle_gamma                   89.4884

loop_
_atom_site_label
_atom_site_type_symbol
_atom_site_fract_x
_atom_site_fract_y
_atom_site_fract_z
_atom_site_charge
  Ge     Ge        0.556730000000016    0.000000000000000    0.122129999999970  0.0000
  Ge     Ge        0.052274412159684    0.985778660681532    0.877711222312157  0.0000
  Ge     Ge        0.862220813806920    0.649449624040570    0.018718964862317  0.0000
  Ge     Ge        0.828236002076856    0.240787161340231    0.016969934142104  0.0000
  Si     Si        0.049631223917553    0.988171608398984    0.367934449331928  0.0000
  Si     Si        0.452670763567315    0.998649248214086    0.376567586102982  0.0000
  Si     Si        0.948380951887591    0.982528419725913    0.621001022028590  0.0000
  Si     Si        0.546254196840295    0.004812081661364    0.638142991104173  0.0000
  Si     Si        0.945693583731746    0.973265408102860    0.120842072463251  0.0000
  Si     Si        0.442921009775834    0.985273042814289    0.886400636405035  0.0000
  Si     Si        0.167188696766023    0.270211203067553    0.282097847091590  0.0000
  Si     Si        0.334293399664790    0.714471656718346    0.278740485914824  0.0000
  Si     Si        0.829096531532503    0.263975724909541    0.714982399987831  0.0000
  Si     Si        0.668125270711358    0.720493404681570    0.725050246358083  0.0000
  Si     Si        0.850444693270983    0.674602101517122    0.720240348930016  0.0000
  Si     Si        0.648391151200669    0.316052338822590    0.721017405094011  0.0000
  Si     Si        0.151644633332730    0.678488968326637    0.277905257768498  0.0000
  Si     Si        0.350349392581072    0.308086761493270    0.284715827349472  0.0000
  Si     Si        0.644621327866463    0.324880853874487    0.019286049085460  0.0000
  Si     Si        0.353443357825832    0.307864408662337    0.989366545683222  0.0000
  Si     Si        0.147010080847647    0.663762806426622    0.982929482854106  0.0000
  Si     Si        0.330562196257332    0.707162623698064    0.981542329588076  0.0000
  Si     Si        0.169879840084519    0.261550973551563    0.987047302876086  0.0000
  Si     Si        0.674746781255049    0.718918536501230    0.021841538131386  0.0000
  O2     O2        0.116411184154803    0.140939790787642    0.371126740849970  0.0000
  O2     O2        0.385020411991016    0.849635842687826    0.362542939521412  0.0000
  O2     O2        0.880064293307159    0.134340697432447    0.624310283397254  0.0000
  O2     O2        0.617196199029670    0.860049954781481    0.643136205711903  0.0000
  O2     O2        0.909106145136693    0.787934704013097    0.631038094026250  0.0000
  O2     O2        0.584556034778431    0.200445959896037    0.642958611017843  0.0000
  O2     O2        0.092512922767372    0.796190105859898    0.363251181534080  0.0000
  O2     O2        0.410831415488968    0.191960974820626    0.369101015721842  0.0000
  O2     O2        0.994501243959071    0.997955974741221    0.489509301422317  0.0000
  O2     O2        0.496261259502955    0.980234061391522    0.510745213173844  0.0000
  O2     O2        0.993698912386078    0.021632201890710    0.246713164406478  0.0000
  O3     O3        0.518535386085488    0.971584809508179    0.270304809458253  0.0000
  O3     O3        0.012811225202884    0.015776286206985    0.730062636975454  0.0000
  O2     O2        0.485856516873071    0.973089856466540    0.752449172922075  0.0000
  O3     O3        0.579777873903716    0.219334572139794    0.097018274295406  0.0000
  O3     O3        0.930376459310996    0.765045217371173    0.108891485031879  0.0000
  O2     O2        0.412735057385526    0.187429049526574    0.906902787325527  0.0000
  O3     O3        0.085364142333616    0.769175136664143    0.896959154409761  0.0000
  O2     O2        0.369216392745610    0.849167095700923    0.887985496165568  0.0000
  O3     O3        0.133639042205167    0.122273091745012    0.892513785259715  0.0000
  O3     O3        0.641475889466903    0.869838889152913    0.111767335479450  0.0000
  O3     O3        0.861124180409705    0.072871007321667    0.114650114531522  0.0000
  O3     O3        0.497959584387951    0.921399253051739    0.001072887264384  0.0000
  O3     O3        0.988631663833400    0.050885305118786    0.995810503975156  0.0000
  O2     O2        0.137315597533201    0.471453621435749    0.304536890283112  0.0000
  O2     O2        0.364447802394320    0.515522766864982    0.309689800597810  0.0000
  O2     O2        0.864050188404996    0.462981470282469    0.706956725099329  0.0000
  O2     O2        0.632282457273311    0.525122566713115    0.700910838262491  0.0000
  O2     O2        0.260176514925473    0.256485390712549    0.318408026774454  0.0000
  O2     O2        0.241626336125913    0.730705805548305    0.313941290081444  0.0000
  O2     O2        0.736764578710261    0.267703554195039    0.671704933291108  0.0000
  O2     O2        0.759851382812180    0.722935983752379    0.681572973305300  0.0000
  O2     O2        0.156329134029992    0.210470572192915    0.135372494823036  0.0000
  O2     O2        0.344368644540923    0.760173860936639    0.129522702824494  0.0000
  O3     O3        0.833819321904655    0.188161388376440    0.856605723728791  0.0000
  O2     O2        0.666841143806961    0.776173132584781    0.873182317761203  0.0000
  O3     O3        0.872401108254865    0.727501018435725    0.863564233728445  0.0000
  O2     O2        0.640592240196766    0.268404870451662    0.869853223960387  0.0000
  O2     O2        0.133421865016714    0.722481794165197    0.130126745119173  0.0000
  O2     O2        0.370239842415651    0.262870155976504    0.137722345612394  0.0000
  O2     O2        0.627771767610366    0.533681868197405    0.037698341190283  0.0000
  O1     O1        0.882146566210436    0.431091296093213    0.036258486894081  0.0000
  O2     O2        0.369676206879646    0.513274227256883    0.958947421379123  0.0000
  O2     O2        0.131248835393767    0.455716364578426    0.964697045950858  0.0000
  O3     O3        0.732355575179150    0.276324897895997    0.066472152487661  0.0000
  O3     O3        0.765124007601320    0.685678825926192    0.060603281957226  0.0000
  O2     O2        0.263060623715527    0.264942388286512    0.956827421383669  0.0000
  O2     O2        0.237713241714801    0.706000701885817    0.947375585927408  0.0000
