data_c00829.vasp
_audit_creation_method             Generated by GULP
_audit_author_name                 Salvador R. G. Balestra
_symmetry_space_group_name_H-M     'P 1             '
_symmetry_Int_Tables_number        1

loop_
_symmetry_equiv_pos_site_id
_symmetry_equiv_pos_as_xyz
_cell_length_a                       17.0844
_cell_length_b                        7.6215
_cell_length_c                       10.2537
_cell_angle_alpha                   90.5082
_cell_angle_beta                    91.2516
_cell_angle_gamma                   89.4630

loop_
_atom_site_label
_atom_site_type_symbol
_atom_site_fract_x
_atom_site_fract_y
_atom_site_fract_z
_atom_site_charge
  Ge     Ge        0.556730000000016    0.000000000000000    0.122129999999970  0.0000
  Ge     Ge        0.435807358942617    0.985556623424701    0.880283208223671  0.0000
  Ge     Ge        0.162769549268966    0.275272024871421    0.281017722515682  0.0000
  Ge     Ge        0.826713509386814    0.263630653567218    0.016292406550525  0.0000
  Si     Si        0.047532036624710    0.987316838550069    0.365087735256713  0.0000
  Si     Si        0.452510857300483    0.997614381428516    0.366908001802225  0.0000
  Si     Si        0.942018144634546    0.973393364771069    0.613126650000922  0.0000
  Si     Si        0.546385485554113    0.998343977364135    0.629974266161383  0.0000
  Si     Si        0.940404307485578    0.981516653200062    0.110210021217678  0.0000
  Si     Si        0.044505709415267    0.989713196681341    0.869429762639544  0.0000
  Si     Si        0.334862006251883    0.709626535513655    0.262687108796195  0.0000
  Si     Si        0.827446601260476    0.264186194232053    0.705220042085567  0.0000
  Si     Si        0.663114974866927    0.710564999616012    0.705753228313294  0.0000
  Si     Si        0.843902570491456    0.668114998295326    0.707312897233319  0.0000
  Si     Si        0.648969432244626    0.309553643993512    0.705722964344345  0.0000
  Si     Si        0.154875895709990    0.686681587834536    0.280886300063822  0.0000
  Si     Si        0.346307757359172    0.301482798698618    0.265671764491079  0.0000
  Si     Si        0.644955243301202    0.322046773240507    0.012669545249626  0.0000
  Si     Si        0.852548488931159    0.662255329670389    0.009152974387931  0.0000
  Si     Si        0.336635627434524    0.305681858610032    0.961528860877017  0.0000
  Si     Si        0.140609843875760    0.674860347309561    0.975935194672262  0.0000
  Si     Si        0.320220955540977    0.704760024526936    0.959354540297106  0.0000
  Si     Si        0.155729045039888    0.273981824854330    0.970588473160204  0.0000
  Si     Si        0.670221394142444    0.715573439462494    0.009069521650271  0.0000
  O3     O3        0.105226772219715    0.150403686043867    0.378317873755985  0.0000
  O2     O2        0.391175603938652    0.840668326100494    0.342112150686617  0.0000
  O2     O2        0.877837104548053    0.129645863474352    0.618593275394888  0.0000
  O2     O2        0.613409693229133    0.846625117538722    0.617370846489742  0.0000
  O2     O2        0.899963560049109    0.784834544032240    0.620064687126000  0.0000
  O2     O2        0.586884745135491    0.189447618759548    0.626886846620031  0.0000
  O2     O2        0.101702204023136    0.813043408766987    0.368596674152274  0.0000
  O2     O2        0.411447498905625    0.186593553149278    0.342045608459377  0.0000
  O2     O2        0.984422319962136    0.982719978071667    0.476717814004671  0.0000
  O2     O2        0.481116011263651    0.986725353715531    0.516483379358613  0.0000
  O2     O2        0.000901138172154    0.000787288792006    0.228370124189347  0.0000
  O3     O3        0.528930115234012    0.980874532191960    0.281303113233149  0.0000
  O2     O2        0.007504220144513    0.995303884761479    0.725807369067468  0.0000
  O3     O3        0.504095054679264    0.964502487406131    0.763502294702929  0.0000
  O3     O3        0.580046815084969    0.214708227651417    0.085051541287293  0.0000
  O2     O2        0.908433853046388    0.782990778587779    0.099539812407982  0.0000
  O3     O3        0.393261426746241    0.192447018847871    0.873633936938761  0.0000
  O2     O2        0.079554567122525    0.795329772534167    0.895755803606091  0.0000
  O3     O3        0.360854042890499    0.834698526908290    0.863651115814302  0.0000
  O2     O2        0.111106951843277    0.137636750619515    0.875944249867649  0.0000
  O3     O3        0.637822097303820    0.866619182063266    0.099726946036535  0.0000
  O3     O3        0.868563564289133    0.114751895235307    0.121917777516612  0.0000
  O1     O1        0.480650672425026    0.935521723281496    0.025302254445356  0.0000
  O2     O2        0.980406215806776    0.040082701303159    0.975892274356402  0.0000
  O3     O3        0.136585019128146    0.489262086788255    0.314119979386468  0.0000
  O2     O2        0.362486920846495    0.508904915491386    0.286994441833473  0.0000
  O2     O2        0.859703530603751    0.461191350374692    0.684773810874536  0.0000
  O2     O2        0.630735924877842    0.514406018335123    0.678600942632843  0.0000
  O3     O3        0.261610194572608    0.252729093500870    0.316189222046299  0.0000
  O2     O2        0.246005058733036    0.731844053508691    0.311077071834595  0.0000
  O2     O2        0.736216782427767    0.260131408887918    0.659462789483820  0.0000
  O2     O2        0.754263596244794    0.716518390541557    0.669153009930560  0.0000
  O3     O3        0.147695275901746    0.218071723558818    0.119503011055917  0.0000
  O2     O2        0.336735939604275    0.759045071181063    0.110522570286071  0.0000
  O3     O3        0.832657320930247    0.205251140618313    0.854020163560217  0.0000
  O2     O2        0.655595774435443    0.765747780411019    0.857374625570908  0.0000
  O2     O2        0.863285972702234    0.715207070293047    0.858087629715936  0.0000
  O2     O2        0.641691892291498    0.271410307347659    0.858899879456686  0.0000
  O2     O2        0.134997147185225    0.722185248551113    0.128492138461319  0.0000
  O2     O2        0.353441691344268    0.253831052490495    0.112548107200360  0.0000
  O2     O2        0.628027921304160    0.529691163589082    0.033378185075325  0.0000
  O3     O3        0.873790719853636    0.462871041550608    0.035117157506957  0.0000
  O2     O2        0.354162694454021    0.509033211866494    0.937289046499341  0.0000
  O2     O2        0.119998702042224    0.470512513813754    0.952499621085583  0.0000
  O3     O3        0.731178414256767    0.274479462316359    0.065313448558096  0.0000
  O2     O2        0.761835650046537    0.692514460567994    0.042405023395747  0.0000
  O2     O2        0.245801896641703    0.268244652885283    0.929019146097563  0.0000
  O2     O2        0.227623367592022    0.710862012092655    0.927946157587535  0.0000
