data_c00872.vasp
_audit_creation_method             Generated by GULP
_audit_author_name                 Salvador R. G. Balestra
_symmetry_space_group_name_H-M     'P 1             '
_symmetry_Int_Tables_number        1

loop_
_symmetry_equiv_pos_site_id
_symmetry_equiv_pos_as_xyz
_cell_length_a                       16.9417
_cell_length_b                        7.5650
_cell_length_c                       10.4377
_cell_angle_alpha                   90.5060
_cell_angle_beta                    89.5675
_cell_angle_gamma                   90.2506

loop_
_atom_site_label
_atom_site_type_symbol
_atom_site_fract_x
_atom_site_fract_y
_atom_site_fract_z
_atom_site_charge
  Ge     Ge        0.556730000000016    0.000000000000000    0.122129999999970  0.0000
  Ge     Ge        0.058139504728301    0.963183144450967    0.873308709267539  0.0000
  Ge     Ge        0.330602352797349    0.712918500292297    0.288256325071352  0.0000
  Ge     Ge        0.148106887584340    0.633796309878061    0.974587107311719  0.0000
  Si     Si        0.046443006099552    0.975750094801257    0.365664408368085  0.0000
  Si     Si        0.451483848929424    0.995287397924418    0.381289197043142  0.0000
  Si     Si        0.950858792702736    0.984266672850802    0.625765053089145  0.0000
  Si     Si        0.550241035053025    0.999621583735075    0.636034553934914  0.0000
  Si     Si        0.947250069348394    0.995195625208010    0.114256518700026  0.0000
  Si     Si        0.446337368943142    0.983227110329265    0.882409755057009  0.0000
  Si     Si        0.168068262290320    0.255010166836692    0.283757766059265  0.0000
  Si     Si        0.833446459162973    0.269730055155119    0.724429494370019  0.0000
  Si     Si        0.668316454304853    0.715627652522896    0.730695606290875  0.0000
  Si     Si        0.849759744796634    0.675261147372234    0.721271471122071  0.0000
  Si     Si        0.652044144248247    0.307946893104876    0.732653803644717  0.0000
  Si     Si        0.146804356493437    0.662767505872292    0.279630434623915  0.0000
  Si     Si        0.350642975457147    0.301126115477194    0.292629747000635  0.0000
  Si     Si        0.651206074154196    0.322446721275586    0.029848034341779  0.0000
  Si     Si        0.856512016072876    0.672459219824314    0.018908963058865  0.0000
  Si     Si        0.356872003752117    0.301812453295749    0.996187575214086  0.0000
  Si     Si        0.332326673674549    0.700523077643695    0.982672631578385  0.0000
  Si     Si        0.175252961008128    0.231981063085779    0.985924874682888  0.0000
  Si     Si        0.674847945826105    0.722704153656828    0.028204329733312  0.0000
  Si     Si        0.833460020170419    0.274487028168760    0.023271801962705  0.0000
  O2     O2        0.117762773313443    0.119206776263307    0.369878921537749  0.0000
  O3     O3        0.382828282963219    0.850357687990249    0.388040497146622  0.0000
  O2     O2        0.883317476965536    0.133269100651465    0.638990615360538  0.0000
  O2     O2        0.615797231254735    0.846404441981905    0.647198619732538  0.0000
  O2     O2        0.910508212780975    0.790985535740526    0.638365958014913  0.0000
  O2     O2        0.591777156908409    0.191082868384623    0.649659865675907  0.0000
  O2     O2        0.082046949176998    0.778185627220367    0.358424770730749  0.0000
  O2     O2        0.409242640642735    0.186594182190059    0.378791144411610  0.0000
  O2     O2        0.992225156903089    0.997628123461141    0.489350426492432  0.0000
  O2     O2        0.512127650647030    0.987219532563965    0.497178747536631  0.0000
  O2     O2        0.990535392142438    0.017314349966172    0.247392430010134  0.0000
  O3     O3        0.500571168323279    0.955822420263283    0.252725947785882  0.0000
  O3     O3        0.018212916565041    0.015330602101082    0.729324876473008  0.0000
  O2     O2        0.480697332068625    0.975905795205949    0.739285056969960  0.0000
  O3     O3        0.591101512176189    0.215604392012984    0.117642174176501  0.0000
  O2     O2        0.917946196910457    0.791503431195280    0.098139151299024  0.0000
  O2     O2        0.416166178263869    0.182763182888633    0.912245240426887  0.0000
  O1     O1        0.081520433164121    0.744738017464855    0.883799133479587  0.0000
  O2     O2        0.375871798928698    0.840080406331538    0.890738648833128  0.0000
  O3     O3        0.147468426139264    0.074052018821667    0.897318410451311  0.0000
  O3     O3        0.638726729840756    0.863415917681013    0.122946941339409  0.0000
  O2     O2        0.873459155381841    0.129898029028171    0.112234201974643  0.0000
  O3     O3        0.510655167484340    0.930916803285777    0.984627215658215  0.0000
  O3     O3        0.002237551372112    0.048122731856395    0.997167646112634  0.0000
  O2     O2        0.133192177248174    0.452289198026281    0.299551388531754  0.0000
  O3     O3        0.367773560552530    0.504300700551963    0.314424126814478  0.0000
  O2     O2        0.863316961344143    0.468021184952376    0.693358750663110  0.0000
  O2     O2        0.638110038962499    0.515182615052693    0.707067377963254  0.0000
  O2     O2        0.259431501607652    0.253966056608495    0.327203724477703  0.0000
  O3     O3        0.232385159764249    0.714702500906182    0.331269271469996  0.0000
  O2     O2        0.740946422432973    0.254359720171353    0.691814825397424  0.0000
  O2     O2        0.760154690575041    0.729069502328272    0.688607507774825  0.0000
  O2     O2        0.163955015023732    0.189540730626585    0.136886558359546  0.0000
  O3     O3        0.335704654428764    0.770078066319190    0.128805972717168  0.0000
  O2     O2        0.844795110726996    0.223824343558044    0.873622260141945  0.0000
  O2     O2        0.661790179388764    0.772204511255820    0.879197878803499  0.0000
  O2     O2        0.870388615933919    0.717434915314267    0.869251458186713  0.0000
  O2     O2        0.636268517234042    0.265676981916714    0.881808068481370  0.0000
  O3     O3        0.137579843581066    0.707251213524902    0.131252142016460  0.0000
  O2     O2        0.369242093065310    0.248203038780696    0.144268972392793  0.0000
  O2     O2        0.636213174017202    0.529761927939405    0.051607468363686  0.0000
  O2     O2        0.873493018434373    0.466923741562742    0.046742976633904  0.0000
  O2     O2        0.376274556842323    0.508869867971987    0.977446771945859  0.0000
  O3     O3        0.128911750796617    0.411929444733954    0.956489143109582  0.0000
  O2     O2        0.741780259247299    0.277672354633188    0.062117595149117  0.0000
  O2     O2        0.767640798030764    0.716954639675768    0.058113931822872  0.0000
  O2     O2        0.267286273075676    0.267466921092748    0.955873037138021  0.0000
  O3     O3        0.244670340054557    0.679686593749097    0.931854585449894  0.0000
