data_c00845.vasp
_audit_creation_method             Generated by GULP
_audit_author_name                 Salvador R. G. Balestra
_symmetry_space_group_name_H-M     'P 1             '
_symmetry_Int_Tables_number        1

loop_
_symmetry_equiv_pos_site_id
_symmetry_equiv_pos_as_xyz
_cell_length_a                       16.9150
_cell_length_b                        7.5712
_cell_length_c                       10.3896
_cell_angle_alpha                   90.4728
_cell_angle_beta                    90.4050
_cell_angle_gamma                   89.9025

loop_
_atom_site_label
_atom_site_type_symbol
_atom_site_fract_x
_atom_site_fract_y
_atom_site_fract_z
_atom_site_charge
  Ge     Ge        0.556730000000016    0.000000000000000    0.122129999999970  0.0000
  Ge     Ge        0.441087964051527    0.982598193824255    0.877296429454785  0.0000
  Ge     Ge        0.647676118670806    0.328384665597283    0.015137453453691  0.0000
  Ge     Ge        0.166946429619199    0.248624826555401    0.961528010622273  0.0000
  Si     Si        0.047114935883326    0.975111218535101    0.354113383817674  0.0000
  Si     Si        0.448330091610545    0.988871301890437    0.364608301478420  0.0000
  Si     Si        0.946470302117135    0.968283812982310    0.609170555443519  0.0000
  Si     Si        0.545693668812347    0.984579132141430    0.621975587611875  0.0000
  Si     Si        0.948645841399634    0.992388628469392    0.095371565729341  0.0000
  Si     Si        0.055638316814683    0.968537743488781    0.857638228732557  0.0000
  Si     Si        0.165898845793136    0.255472701495011    0.267570778430970  0.0000
  Si     Si        0.328808672481027    0.704882785373036    0.265417135648400  0.0000
  Si     Si        0.829552306253399    0.258610121815194    0.705091368288316  0.0000
  Si     Si        0.664326184766880    0.703295981368103    0.700226285256214  0.0000
  Si     Si        0.846306834840173    0.662048750216821    0.693090083741933  0.0000
  Si     Si        0.648026618794640    0.295448550930224    0.710614026781610  0.0000
  Si     Si        0.147345012743212    0.663187910445967    0.267218978772549  0.0000
  Si     Si        0.346747038782639    0.298757833032441    0.262682442751729  0.0000
  Si     Si        0.855713806502717    0.672714061709791    0.991075876661265  0.0000
  Si     Si        0.351022643968854    0.312941383103498    0.961728149187677  0.0000
  Si     Si        0.139495659724487    0.649077795423453    0.969152975344849  0.0000
  Si     Si        0.322394991121875    0.707031775465514    0.966773250862809  0.0000
  Si     Si        0.672957388634883    0.732324669719967    0.999303354244117  0.0000
  Si     Si        0.833445105523535    0.277670366419491    0.006765912928785  0.0000
  O2     O2        0.115213555168371    0.124672803147812    0.356059895066606  0.0000
  O2     O2        0.380623112670833    0.840125549014072    0.349761823237644  0.0000
  O2     O2        0.879575101305133    0.118859085941298    0.622898019835960  0.0000
  O2     O2        0.613232951881785    0.832157073084803    0.609136116376267  0.0000
  O2     O2        0.903720747740557    0.777294150729585    0.603975919715976  0.0000
  O2     O2        0.586921696631515    0.176989104199261    0.627249532759245  0.0000
  O2     O2        0.087991856833648    0.781437083616066    0.352492077368518  0.0000
  O2     O2        0.410611826811373    0.182349685367770    0.339372737911093  0.0000
  O2     O2        0.994638141947383    0.996104001417633    0.480045436713135  0.0000
  O2     O2        0.482548561951554    0.981514643889153    0.507607002345716  0.0000
  O2     O2        0.990226106207882    0.003221538696485    0.232609059446433  0.0000
  O3     O3        0.521956719438436    0.955126740348304    0.272752231201415  0.0000
  O2     O2        0.006919784593647    0.981917803160508    0.727398936380734  0.0000
  O3     O3        0.496707226820610    0.937033075926636    0.746582704854140  0.0000
  O1     O1        0.581325535971686    0.218523731146306    0.106855984802580  0.0000
  O2     O2        0.914447460104138    0.795489559551805    0.073373906142303  0.0000
  O3     O3        0.415530694811012    0.204385328579427    0.883450459321065  0.0000
  O2     O2        0.082341755489298    0.766695304652765    0.880548882266139  0.0000
  O3     O3        0.355718451610264    0.855101744268235    0.876368453771919  0.0000
  O3     O3        0.130828854030258    0.094469535950302    0.854557412183245  0.0000
  O3     O3        0.644742163304197    0.890376215795055    0.087587373561233  0.0000
  O2     O2        0.878754979821390    0.136161557217584    0.094066096864780  0.0000
  O1     O1        0.490301325761607    0.921470685439751    0.012790662046617  0.0000
  O2     O2        0.007988122467832    0.043983299281157    0.981370559230605  0.0000
  O2     O2        0.133388189193340    0.454950622414566    0.288202163662556  0.0000
  O2     O2        0.362087586102619    0.506805792253217    0.287623929085982  0.0000
  O2     O2        0.861727576009324    0.453991677881607    0.672029204166841  0.0000
  O2     O2        0.632096338687837    0.503194925486603    0.686739425908698  0.0000
  O2     O2        0.258529711635337    0.248890948105411    0.307932538147538  0.0000
  O2     O2        0.237153426949753    0.713182414993932    0.307065313010024  0.0000
  O2     O2        0.737118817415538    0.245892847157409    0.667317264744544  0.0000
  O2     O2        0.755727335596620    0.708310447793063    0.657671205361454  0.0000
  O3     O3        0.159769677114705    0.190820162159270    0.121190480343728  0.0000
  O2     O2        0.333714926149845    0.762056372478486    0.116832658881293  0.0000
  O2     O2        0.836404086986396    0.218790523351325    0.856694472974568  0.0000
  O2     O2        0.658479762599696    0.771173762747983    0.847457218168823  0.0000
  O2     O2        0.866444471358248    0.715880575497836    0.840368569282131  0.0000
  O3     O3        0.633346838625072    0.252338866053370    0.858512270340097  0.0000
  O2     O2        0.129680111182558    0.708294417953685    0.118304757635135  0.0000
  O2     O2        0.358085921995207    0.254891476817582    0.111967949800660  0.0000
  O3     O3        0.628625391898132    0.550719293542909    0.031131165309401  0.0000
  O2     O2        0.876045723681271    0.468953951395890    0.020613732653231  0.0000
  O2     O2        0.368170140185970    0.520944735671384    0.945532761196150  0.0000
  O3     O3        0.117839349204776    0.448154707240905    0.945801719894437  0.0000
  O3     O3        0.745015833416335    0.287261665776266    0.056183331558150  0.0000
  O2     O2        0.765585127073674    0.706563447115566    0.028779991380757  0.0000
  O3     O3        0.263698053143356    0.266937728794802    0.914603728193768  0.0000
  O2     O2        0.230756298705019    0.678238524892887    0.932314183723664  0.0000
