data_c00826.vasp
_audit_creation_method             Generated by GULP
_audit_author_name                 Salvador R. G. Balestra
_symmetry_space_group_name_H-M     'P 1             '
_symmetry_Int_Tables_number        1

loop_
_symmetry_equiv_pos_site_id
_symmetry_equiv_pos_as_xyz
_cell_length_a                       17.0452
_cell_length_b                        7.5670
_cell_length_c                       10.2999
_cell_angle_alpha                   91.2908
_cell_angle_beta                    90.1626
_cell_angle_gamma                   89.1982

loop_
_atom_site_label
_atom_site_type_symbol
_atom_site_fract_x
_atom_site_fract_y
_atom_site_fract_z
_atom_site_charge
  Ge     Ge        0.556730000000016    0.000000000000000    0.122129999999970  0.0000
  Ge     Ge        0.442060430715127    0.964791795846854    0.875823694933946  0.0000
  Ge     Ge        0.145627940190539    0.324348712659263    0.303043300376587  0.0000
  Ge     Ge        0.352657502552165    0.637784994424476    0.980412668900993  0.0000
  Si     Si        0.045485567869162    0.015419885635537    0.382729089807588  0.0000
  Si     Si        0.448905568536097    0.993531364168249    0.375722676401810  0.0000
  Si     Si        0.949305074573702    0.988445743001747    0.639793777529743  0.0000
  Si     Si        0.547737861250691    0.987407461539247    0.630628057313117  0.0000
  Si     Si        0.945135171753202    0.000022791417786    0.127805539764372  0.0000
  Si     Si        0.056552128395837    0.984828284910731    0.891119753378091  0.0000
  Si     Si        0.347886493103394    0.682438765428059    0.287788549014104  0.0000
  Si     Si        0.845885132347824    0.302228519351229    0.722508423558787  0.0000
  Si     Si        0.651225622972330    0.681750241395118    0.735048847631823  0.0000
  Si     Si        0.831958236138779    0.708315096936048    0.726335630358525  0.0000
  Si     Si        0.665935278532375    0.271710713242975    0.732552035121281  0.0000
  Si     Si        0.168061230774347    0.733400240892528    0.281759244288227  0.0000
  Si     Si        0.329700838960857    0.277006476343633    0.307014932222306  0.0000
  Si     Si        0.673923025564539    0.274950468238824    0.034058922803857  0.0000
  Si     Si        0.833962745929253    0.715288986530720    0.029302994411266  0.0000
  Si     Si        0.325890024481848    0.237807233219093    0.003703320935101  0.0000
  Si     Si        0.169481497696161    0.697130868685279    0.977003169267610  0.0000
  Si     Si        0.144308399623116    0.304460861515501    0.996683657912071  0.0000
  Si     Si        0.652669573961372    0.675604196500091    0.035757489419556  0.0000
  Si     Si        0.853971246512136    0.317172846345109    0.025442490668847  0.0000
  O3     O3        0.078206226530944    0.212002014855387    0.393521512837982  0.0000
  O2     O2        0.407119475564161    0.803131338126210    0.372893880500014  0.0000
  O2     O2        0.905420846153932    0.179552336815335    0.638511437025683  0.0000
  O2     O2        0.589519579337958    0.796888444715446    0.653764365305995  0.0000
  O2     O2        0.882939822196710    0.838210891476576    0.640892115166086  0.0000
  O2     O2        0.611269637832211    0.141913492974518    0.649035235027384  0.0000
  O2     O2        0.122091311593726    0.891934727225461    0.355358717451099  0.0000
  O2     O2        0.383335802749550    0.149835362800595    0.395835408146159  0.0000
  O2     O2        0.002228380240819    0.962078121261146    0.513304369984623  0.0000
  O2     O2        0.515798650095239    0.994358487188038    0.484753830105936  0.0000
  O2     O2        0.982466258680386    0.988950748904732    0.268582407350428  0.0000
  O3     O3        0.491619584188992    0.036925915303541    0.243424629875590  0.0000
  O2     O2        0.006115567058917    0.968739388442885    0.761896891246069  0.0000
  O3     O3        0.472658952193711    0.011212607703591    0.721508755815576  0.0000
  O3     O3        0.635023801975161    0.143238189855650    0.129921680908859  0.0000
  O2     O2        0.873842865661155    0.862812836447449    0.119815097853312  0.0000
  O3     O3        0.354805595379449    0.072618835752645    0.919449797380452  0.0000
  O2     O2        0.125656736788121    0.837519327967987    0.886037544781751  0.0000
  O1     O1        0.419942314160438    0.745714544462322    0.890547883213191  0.0000
  O2     O2        0.092090336363361    0.181121563346006    0.901990165380898  0.0000
  O3     O3        0.594597637454853    0.786069324214433    0.126377464381825  0.0000
  O2     O2        0.914507341532437    0.200196386248576    0.107104471850346  0.0000
  O1     O1        0.511871150934784    0.042925050380482    0.978833400635773  0.0000
  O2     O2        0.005853594761233    0.940771619872337    0.016822845083555  0.0000
  O3     O3        0.129575679765175    0.549261076874770    0.316543349653403  0.0000
  O2     O2        0.363272354398448    0.476035273637960    0.316580587062310  0.0000
  O2     O2        0.859396819289002    0.507489916658886    0.692564198463202  0.0000
  O2     O2        0.637185647685023    0.473352389524208    0.710269214407232  0.0000
  O3     O3        0.240400069493657    0.278307409184787    0.353196384416911  0.0000
  O2     O2        0.258708295461154    0.733783590108373    0.328022483235267  0.0000
  O2     O2        0.756417111516048    0.250739888196316    0.687792811214296  0.0000
  O2     O2        0.739603534177272    0.730711057013828    0.694190609970363  0.0000
  O3     O3        0.127538226402372    0.256860084961956    0.144247253879358  0.0000
  O3     O3        0.364012622285196    0.718569800400872    0.138310206691588  0.0000
  O2     O2        0.864061186692918    0.268294643527490    0.873450425403015  0.0000
  O2     O2        0.635289805723795    0.730121394619709    0.886344640485800  0.0000
  O2     O2        0.844563333325286    0.757736157238137    0.877793663379521  0.0000
  O2     O2        0.660586425279136    0.219217351971049    0.882869095214995  0.0000
  O2     O2        0.168535596542389    0.763175552961689    0.127299372478529  0.0000
  O2     O2        0.332251312726683    0.204497043376545    0.158104316675382  0.0000
  O2     O2        0.636227292068726    0.470116156279246    0.055549068384023  0.0000
  O2     O2        0.872378667507576    0.522567423577246    0.055116076514697  0.0000
  O3     O3        0.373349542723737    0.413969522413980    0.971632313067691  0.0000
  O2     O2        0.124513318534019    0.509314659573727    0.967677056926100  0.0000
  O2     O2        0.765880932951434    0.276958285686815    0.067440724852953  0.0000
  O2     O2        0.742948599673143    0.717676186916142    0.067369474313530  0.0000
  O2     O2        0.235809759422468    0.275457759954506    0.967331771542267  0.0000
  O3     O3        0.257676170861598    0.678033566517248    0.928377742073995  0.0000
