data_c00893.vasp
_audit_creation_method             Generated by GULP
_audit_author_name                 Salvador R. G. Balestra
_symmetry_space_group_name_H-M     'P 1             '
_symmetry_Int_Tables_number        1

loop_
_symmetry_equiv_pos_site_id
_symmetry_equiv_pos_as_xyz
_cell_length_a                       17.1059
_cell_length_b                        7.5932
_cell_length_c                       10.2887
_cell_angle_alpha                   90.7107
_cell_angle_beta                    89.9916
_cell_angle_gamma                   89.4091

loop_
_atom_site_label
_atom_site_type_symbol
_atom_site_fract_x
_atom_site_fract_y
_atom_site_fract_z
_atom_site_charge
  Ge     Ge        0.556730000000016    0.000000000000000    0.122129999999970  0.0000
  Ge     Ge        0.169819033896720    0.247694271294811    0.287496831690232  0.0000
  Ge     Ge        0.336686257621882    0.705197186261474    0.292022958371656  0.0000
  Ge     Ge        0.654176855927152    0.324843475272420    0.044581805097552  0.0000
  Si     Si        0.049056930098677    0.970293645437565    0.373983071455527  0.0000
  Si     Si        0.456576057054266    0.982068987039414    0.379374291614621  0.0000
  Si     Si        0.953278573782016    0.962718314572407    0.633780636431404  0.0000
  Si     Si        0.556122768747893    0.988092386113640    0.634448008801218  0.0000
  Si     Si        0.952189198704677    0.985062675839311    0.114652175177993  0.0000
  Si     Si        0.447686403525467    0.975364558789502    0.875664446719412  0.0000
  Si     Si        0.063903055371963    0.970391364691065    0.875550961928539  0.0000
  Si     Si        0.836711749000674    0.257970534728462    0.733463846649716  0.0000
  Si     Si        0.672399608483592    0.699186973728918    0.729487383599378  0.0000
  Si     Si        0.851543074151738    0.660502234043418    0.724580095360099  0.0000
  Si     Si        0.658374123408472    0.292205332407814    0.735933722948027  0.0000
  Si     Si        0.154041927504231    0.663799839978331    0.289173793609333  0.0000
  Si     Si        0.353054740980615    0.287363964209462    0.289499874834920  0.0000
  Si     Si        0.858067233252356    0.667273484910059    0.027100309628570  0.0000
  Si     Si        0.354062372177717    0.292753394234199    0.986016493239246  0.0000
  Si     Si        0.156643540325259    0.655437362120948    0.984166904613315  0.0000
  Si     Si        0.338480604991412    0.695622391204731    0.983337813400328  0.0000
  Si     Si        0.171954997250082    0.254319458260777    0.978795658601189  0.0000
  Si     Si        0.678172685422911    0.726320486193452    0.032453773580096  0.0000
  Si     Si        0.836815834245399    0.274252910742490    0.039046045879315  0.0000
  O3     O3        0.115662429375441    0.116080688427183    0.386146005427236  0.0000
  O3     O3        0.389808567826210    0.837597134108464    0.394973686308414  0.0000
  O2     O2        0.889997824254152    0.117613246097980    0.656956193854372  0.0000
  O2     O2        0.618650046525199    0.828509470940813    0.644898104192323  0.0000
  O2     O2        0.910697853744133    0.774495633453632    0.639687875073181  0.0000
  O2     O2        0.598277462611834    0.175127724765632    0.652604021666579  0.0000
  O2     O2        0.089694866122217    0.777659306137750    0.368365323717543  0.0000
  O2     O2        0.416909974627834    0.175840410184136    0.369464266246330  0.0000
  O2     O2        0.988394146931677    0.982268925328408    0.491256608717331  0.0000
  O2     O2        0.520800479601679    0.982629019872629    0.491225046950945  0.0000
  O2     O2        0.003823481684374    0.010529417272892    0.241217463668105  0.0000
  O3     O3        0.501020441302930    0.930550814697647    0.247412711447902  0.0000
  O2     O2        0.024415758634545    0.974674624429487    0.735121318438643  0.0000
  O2     O2        0.483610329583629    0.966610913809830    0.732067187673436  0.0000
  O1     O1        0.585365512613504    0.214501722196949    0.131010196332018  0.0000
  O2     O2        0.915951680049868    0.789553624566206    0.110054194163243  0.0000
  O2     O2        0.412137583225687    0.171613186261834    0.901013048029937  0.0000
  O2     O2        0.100073135376110    0.776089883031584    0.897987865788601  0.0000
  O2     O2        0.380000536690083    0.828998842087262    0.885924168187469  0.0000
  O2     O2        0.131729398415109    0.116814432029079    0.880043775618330  0.0000
  O3     O3        0.645286782586439    0.884625959590359    0.116526815832615  0.0000
  O2     O2        0.883544309685858    0.130581439449093    0.121465699933972  0.0000
  O3     O3        0.513592857828345    0.934095620360104    0.978726402745591  0.0000
  O2     O2        0.001662386244150    0.021341073444510    0.985859578447420  0.0000
  O3     O3        0.151779922506073    0.464105243094450    0.332067001543529  0.0000
  O3     O3        0.355264852419564    0.488680184122841    0.331877323058839  0.0000
  O2     O2        0.867947392792907    0.453042865187250    0.701437579740957  0.0000
  O2     O2        0.641808076274572    0.499699910631188    0.712513616182508  0.0000
  O3     O3        0.268190230865996    0.205939661453789    0.310677661970895  0.0000
  O3     O3        0.238571782320599    0.746579158057913    0.314750879358583  0.0000
  O2     O2        0.746508867075615    0.243015654534189    0.689046212537558  0.0000
  O2     O2        0.762657717968707    0.707871544662762    0.683573087000691  0.0000
  O3     O3        0.148948036538003    0.210893781977680    0.125360576796814  0.0000
  O3     O3        0.359397779968290    0.743522925038575    0.131020895407628  0.0000
  O2     O2        0.838399748242377    0.221080208308716    0.886674757692813  0.0000
  O2     O2        0.668411940595323    0.761768320369216    0.878531575645016  0.0000
  O2     O2        0.867575090346473    0.710671208907913    0.874857005168320  0.0000
  O3     O3        0.645249779835285    0.249968634129609    0.885404755084372  0.0000
  O2     O2        0.135320669276840    0.679074754262907    0.135300246178867  0.0000
  O2     O2        0.376123595104909    0.265633108977400    0.136715282165233  0.0000
  O3     O3        0.634103913337601    0.545469670707395    0.062937881404702  0.0000
  O2     O2        0.878904367254414    0.464059781863103    0.055786627434157  0.0000
  O2     O2        0.366822870814989    0.495960961910418    0.949542425047847  0.0000
  O2     O2        0.144709659044912    0.452335867038758    0.942364084695826  0.0000
  O3     O3        0.749552189600250    0.282736025136350    0.091511649936644  0.0000
  O2     O2        0.769070918221078    0.701812416286334    0.068544933654199  0.0000
  O2     O2        0.265171325746326    0.236584245859578    0.962027055132364  0.0000
  O2     O2        0.245705093206777    0.712185951896340    0.962168085357773  0.0000
