data_c00804.vasp
_audit_creation_method             Generated by GULP
_audit_author_name                 Salvador R. G. Balestra
_symmetry_space_group_name_H-M     'P 1             '
_symmetry_Int_Tables_number        1

loop_
_symmetry_equiv_pos_site_id
_symmetry_equiv_pos_as_xyz
_cell_length_a                       16.8673
_cell_length_b                        7.5600
_cell_length_c                       10.4920
_cell_angle_alpha                   89.8859
_cell_angle_beta                    90.2353
_cell_angle_gamma                   91.0901

loop_
_atom_site_label
_atom_site_type_symbol
_atom_site_fract_x
_atom_site_fract_y
_atom_site_fract_z
_atom_site_charge
  Ge     Ge        0.556730000000016    0.000000000000000    0.122129999999970  0.0000
  Ge     Ge        0.944858196250624    0.032526702446178    0.137272969591523  0.0000
  Ge     Ge        0.853692141540117    0.341658509087158    0.725225840067822  0.0000
  Ge     Ge        0.860561687433095    0.365372079308505    0.034349027780553  0.0000
  Si     Si        0.050300954808464    0.002544104241707    0.387143824830935  0.0000
  Si     Si        0.453155909880673    0.005473556515568    0.378459536667370  0.0000
  Si     Si        0.954334012789974    0.029731717320827    0.642155989437054  0.0000
  Si     Si        0.545053886238645    0.000592244289300    0.641708740931218  0.0000
  Si     Si        0.440766987305077    0.010424025146881    0.886328319355445  0.0000
  Si     Si        0.053470213538668    0.002630642523312    0.896150900425563  0.0000
  Si     Si        0.151829057623175    0.315300887072050    0.291037624426111  0.0000
  Si     Si        0.349938729652523    0.693189122608235    0.288806175816378  0.0000
  Si     Si        0.647017781523297    0.694498682937568    0.731114551322133  0.0000
  Si     Si        0.828878705064026    0.755485851722230    0.730853346003314  0.0000
  Si     Si        0.670321318944674    0.290333582507537    0.727387030286923  0.0000
  Si     Si        0.167042751961538    0.722915589574903    0.290437028362454  0.0000
  Si     Si        0.335069385192515    0.285653947348366    0.287314531394608  0.0000
  Si     Si        0.677258898114355    0.285648858394035    0.027618937873315  0.0000
  Si     Si        0.825476008219515    0.763392636864079    0.028567928032089  0.0000
  Si     Si        0.331007794219469    0.288384186544309    0.990959003168608  0.0000
  Si     Si        0.165920211144426    0.724030469100753    0.993799325613210  0.0000
  Si     Si        0.349529302293411    0.689729680175214    0.992976536757503  0.0000
  Si     Si        0.147158232328313    0.322559384033851    0.995933695207523  0.0000
  Si     Si        0.643693808053151    0.675519320351305    0.025802071595103  0.0000
  O2     O2        0.092131899259974    0.196676015501585    0.375015719518690  0.0000
  O2     O2        0.411109680752936    0.811374112922774    0.370924961065234  0.0000
  O3     O3        0.922870840330970    0.227092035330489    0.637260754515943  0.0000
  O2     O2        0.585353851600023    0.808570183666216    0.648879937713863  0.0000
  O2     O2        0.875590982670559    0.903607053762264    0.648493872015998  0.0000
  O2     O2        0.612553438160070    0.151753143803531    0.656565048471725  0.0000
  O2     O2        0.117493331952343    0.853660459452308    0.377518656163785  0.0000
  O2     O2        0.385147385652237    0.153653824828511    0.373600030654466  0.0000
  O2     O2        0.007135365923431    0.985283808255423    0.521035189684212  0.0000
  O2     O2        0.502351067430101    0.021847523861852    0.507379674997638  0.0000
  O3     O3        0.984608744602442    0.971740878701113    0.280176012517843  0.0000
  O3     O3        0.513220170438205    0.039850498570616    0.264734234721653  0.0000
  O2     O2        0.010340623864310    0.989053101128379    0.762096324270893  0.0000
  O2     O2        0.477545514650427    0.021932691811909    0.747186817347339  0.0000
  O3     O3        0.641155125570015    0.130207846657250    0.111169116015905  0.0000
  O3     O3        0.853991065128579    0.922559533160863    0.115819377545703  0.0000
  O2     O2        0.369019016525563    0.148957837750169    0.896239330062774  0.0000
  O2     O2        0.125308919235520    0.863390158001342    0.900991907470621  0.0000
  O2     O2        0.408024816995601    0.810156816512176    0.908826070418922  0.0000
  O2     O2        0.087491528882600    0.204009611350483    0.911947719417376  0.0000
  O3     O3        0.583271608163004    0.780710329623212    0.111615412350409  0.0000
  O1     O1        0.926790793309018    0.252716966404199    0.127373191002954  0.0000
  O3     O3        0.502016234888988    0.068900870340119    0.993671941730600  0.0000
  O3     O3        0.998054638193693    0.949474259708871    0.011663725771784  0.0000
  O2     O2        0.138533861262462    0.521672018902609    0.319038972977198  0.0000
  O2     O2        0.363684445446030    0.486626689530717    0.316050257446479  0.0000
  O3     O3        0.867129230910276    0.567402184208895    0.706696047093505  0.0000
  O2     O2        0.633855666099858    0.485588582446632    0.707294868805722  0.0000
  O2     O2        0.242237427595187    0.264199600337290    0.320941440409683  0.0000
  O2     O2        0.260119151722291    0.743725628303512    0.323133283894070  0.0000
  O3     O3        0.758458126771065    0.287650274694842    0.672970201503650  0.0000
  O2     O2        0.736283531914105    0.749317644291287    0.689700072264268  0.0000
  O2     O2        0.130347966795994    0.273344175423045    0.143671164232946  0.0000
  O2     O2        0.367549591435327    0.736325033093556    0.140620735826778  0.0000
  O1     O1        0.872368667547899    0.291522061645988    0.880810233855561  0.0000
  O2     O2        0.630867422876001    0.738632577697115    0.879133766903145  0.0000
  O2     O2        0.832940091051200    0.811288025213189    0.878663027513519  0.0000
  O2     O2        0.679473608430788    0.240742617615312    0.876604455331448  0.0000
  O2     O2        0.153289566725675    0.772536390020180    0.142320841304557  0.0000
  O2     O2        0.347335448241176    0.238137321248263    0.138618254003403  0.0000
  O2     O2        0.626879284075356    0.466401905877054    0.042360324809474  0.0000
  O3     O3        0.877342721103063    0.589214201695295    0.051577196044533  0.0000
  O2     O2        0.366623535894411    0.484887209965940    0.964438097463377  0.0000
  O2     O2        0.129307201778535    0.527692263837845    0.968843936240480  0.0000
  O3     O3        0.764723965060438    0.317732095669644    0.080103281372095  0.0000
  O2     O2        0.734566195620223    0.717258481802654    0.063720181245568  0.0000
  O2     O2        0.237553138723168    0.282973326113601    0.962945981158783  0.0000
  O2     O2        0.258645219779041    0.729581945048040    0.961123577072595  0.0000
