data_c00871.vasp
_audit_creation_method             Generated by GULP
_audit_author_name                 Salvador R. G. Balestra
_symmetry_space_group_name_H-M     'P 1             '
_symmetry_Int_Tables_number        1

loop_
_symmetry_equiv_pos_site_id
_symmetry_equiv_pos_as_xyz
_cell_length_a                       16.8416
_cell_length_b                        7.5703
_cell_length_c                       10.4971
_cell_angle_alpha                   88.6299
_cell_angle_beta                    90.2138
_cell_angle_gamma                   89.4255

loop_
_atom_site_label
_atom_site_type_symbol
_atom_site_fract_x
_atom_site_fract_y
_atom_site_fract_z
_atom_site_charge
  Ge     Ge        0.556730000000016    0.000000000000000    0.122129999999970  0.0000
  Ge     Ge        0.062595595410753    0.033550409130415    0.886419287837103  0.0000
  Ge     Ge        0.357672252607964    0.678486164032714    0.294053230561478  0.0000
  Ge     Ge        0.331660542548759    0.292082943058696    0.976456104521629  0.0000
  Si     Si        0.050060009961081    0.012204642877506    0.369739550660680  0.0000
  Si     Si        0.457058880920111    0.987446889021233    0.382274525489965  0.0000
  Si     Si        0.958284185615653    0.020311240830316    0.632289372244190  0.0000
  Si     Si        0.554659557518073    0.009915520771588    0.636101780083761  0.0000
  Si     Si        0.948035871852838    0.999749545859269    0.120872021146171  0.0000
  Si     Si        0.445867460628549    0.013951406951336    0.881352279906762  0.0000
  Si     Si        0.153017334093266    0.324486488612175    0.277098504117802  0.0000
  Si     Si        0.855804998392801    0.327639352818628    0.723318140092359  0.0000
  Si     Si        0.657315921019872    0.697860529858614    0.722260746496621  0.0000
  Si     Si        0.839652479612350    0.733236792112825    0.725623805952902  0.0000
  Si     Si        0.672362559780561    0.290978748425717    0.723252425422083  0.0000
  Si     Si        0.171115692727154    0.727952687699790    0.291976689577667  0.0000
  Si     Si        0.334223426373085    0.264536915477796    0.278195746849757  0.0000
  Si     Si        0.674667917066585    0.279152657551726    0.018572784218782  0.0000
  Si     Si        0.835117399628191    0.723296178067145    0.022916437650851  0.0000
  Si     Si        0.178615771103502    0.752732936759946    0.995957053981037  0.0000
  Si     Si        0.364351407118276    0.690099906849812    0.996288955923657  0.0000
  Si     Si        0.147660060195069    0.361899964599397    0.979149768124504  0.0000
  Si     Si        0.651894681562371    0.680423619474089    0.018200357991936  0.0000
  Si     Si        0.858368316652258    0.324654128195458    0.018581344916673  0.0000
  O2     O2        0.090997737268590    0.202835644509458    0.353360076480507  0.0000
  O3     O3        0.424405668934797    0.789395272898947    0.387186951993664  0.0000
  O2     O2        0.916168314634851    0.212689657833734    0.640764400449533  0.0000
  O2     O2        0.598047804899142    0.818355011529450    0.636094244162138  0.0000
  O2     O2        0.891272631554982    0.870102285551351    0.643860000540816  0.0000
  O2     O2        0.621295366037033    0.162146155891558    0.636577831988125  0.0000
  O2     O2        0.117091597266710    0.858325779402662    0.374465150776120  0.0000
  O2     O2        0.380067592913544    0.114689244262527    0.361484780735833  0.0000
  O2     O2        0.001157055290491    0.006612976299849    0.498555238491289  0.0000
  O2     O2        0.500780168697341    0.034632331854346    0.512275494105094  0.0000
  O2     O2        0.988348655707711    0.977054842453149    0.257351718644462  0.0000
  O3     O3        0.520241113586194    0.020231664092591    0.271563960966080  0.0000
  O3     O3        0.024445175590829    0.992364944316294    0.739866672018110  0.0000
  O2     O2        0.498197321901411    0.027615065927934    0.756466862963338  0.0000
  O3     O3        0.638309186109588    0.136637613806749    0.111575761945968  0.0000
  O2     O2        0.874846727094008    0.863866949915666    0.113957492413900  0.0000
  O3     O3        0.371528060365313    0.146010985408649    0.870663563723866  0.0000
  O3     O3        0.150184097527370    0.911486283976056    0.906444485297934  0.0000
  O2     O2        0.416967922756853    0.812119346916428    0.902549537875462  0.0000
  O3     O3        0.083336584533439    0.255482346486419    0.900845713591396  0.0000
  O3     O3        0.588994971213433    0.784971663301444    0.099664461137155  0.0000
  O2     O2        0.917487666650844    0.202655532261507    0.102979963795576  0.0000
  O3     O3        0.492965525819662    0.076886937125623    0.005519139291496  0.0000
  O3     O3        0.005913193495706    0.948658721032510    0.008254483237644  0.0000
  O2     O2        0.136806332451766    0.529452326259494    0.307066270877872  0.0000
  O3     O3        0.372924852265941    0.453580784064702    0.301522454544032  0.0000
  O2     O2        0.869753864662796    0.535053841263165    0.696500108987416  0.0000
  O2     O2        0.642833483752891    0.492018292707718    0.695760608004003  0.0000
  O2     O2        0.242104841712219    0.272372059797150    0.321659235927530  0.0000
  O3     O3        0.261589406473232    0.727809520038245    0.338267336950659  0.0000
  O2     O2        0.765555861089681    0.276067863652605    0.689666904139965  0.0000
  O2     O2        0.747290898968703    0.750465723575913    0.686781788219443  0.0000
  O2     O2        0.143626546226032    0.292932585580388    0.126681592996867  0.0000
  O3     O3        0.381490234908914    0.748062898061426    0.140087126712300  0.0000
  O2     O2        0.876228120156182    0.281678895906899    0.871056540316513  0.0000
  O2     O2        0.639850254354868    0.737467418618435    0.869676260015380  0.0000
  O2     O2        0.848576651265984    0.776425433147020    0.874607634898470  0.0000
  O2     O2        0.660481359964741    0.232438763740018    0.870396471717612  0.0000
  O2     O2        0.168834877198492    0.796847677575661    0.145134738479638  0.0000
  O3     O3        0.337081475383977    0.211797407794817    0.131737120145255  0.0000
  O2     O2        0.636667988397115    0.472754009257733    0.040562012324856  0.0000
  O2     O2        0.874123225899517    0.529178843090172    0.048099929706876  0.0000
  O3     O3        0.384332845480677    0.487850331346560    0.973160980284548  0.0000
  O2     O2        0.130566567787156    0.572149382002427    0.967911843865096  0.0000
  O2     O2        0.767987950076280    0.280910077987175    0.049114111640680  0.0000
  O2     O2        0.742288813757559    0.723852621530033    0.056651344650495  0.0000
  O3     O3        0.234930587982220    0.319577332221433    0.927553507553949  0.0000
  O2     O2        0.270638255880691    0.713561092954815    0.969217252869311  0.0000
