data_c00828.vasp
_audit_creation_method             Generated by GULP
_audit_author_name                 Salvador R. G. Balestra
_symmetry_space_group_name_H-M     'P 1             '
_symmetry_Int_Tables_number        1

loop_
_symmetry_equiv_pos_site_id
_symmetry_equiv_pos_as_xyz
_cell_length_a                       16.9997
_cell_length_b                        7.5592
_cell_length_c                       10.3914
_cell_angle_alpha                   90.2243
_cell_angle_beta                    90.2439
_cell_angle_gamma                   89.9078

loop_
_atom_site_label
_atom_site_type_symbol
_atom_site_fract_x
_atom_site_fract_y
_atom_site_fract_z
_atom_site_charge
  Ge     Ge        0.556730000000016    0.000000000000000    0.122129999999970  0.0000
  Ge     Ge        0.441529411343417    0.005134253736892    0.875712019019822  0.0000
  Ge     Ge        0.146351600636493    0.345726720045400    0.295289639159935  0.0000
  Ge     Ge        0.649747692499594    0.668938881990023    0.035656646147864  0.0000
  Si     Si        0.045887876556957    0.032616212159714    0.376515159449251  0.0000
  Si     Si        0.451536441439100    0.019790375391668    0.371889048757191  0.0000
  Si     Si        0.951267925185210    0.016624512482628    0.634830520249451  0.0000
  Si     Si        0.549340385341793    0.005126007932082    0.629006947239805  0.0000
  Si     Si        0.947389907503975    0.012855967098772    0.119279301829144  0.0000
  Si     Si        0.058453015517277    0.017749607791248    0.883358456080781  0.0000
  Si     Si        0.349312263837925    0.709021979907678    0.279686601995378  0.0000
  Si     Si        0.849500177488316    0.326333351832951    0.718590913420060  0.0000
  Si     Si        0.651877680830935    0.698286557373031    0.731243490353570  0.0000
  Si     Si        0.832044293256294    0.732170062697883    0.727506930303969  0.0000
  Si     Si        0.669156763404859    0.287951178124338    0.724379317624444  0.0000
  Si     Si        0.168198401751513    0.757501975158597    0.280999698485969  0.0000
  Si     Si        0.332119635177441    0.300711235977727    0.294615127854626  0.0000
  Si     Si        0.675792640935785    0.267065532484341    0.023438192949009  0.0000
  Si     Si        0.833955547501325    0.725182188615918    0.029180839971783  0.0000
  Si     Si        0.326946365603394    0.283140582500149    0.995647260153442  0.0000
  Si     Si        0.169761656098911    0.735254456465987    0.979748684621749  0.0000
  Si     Si        0.351257481235302    0.682650110225556    0.981730429170153  0.0000
  Si     Si        0.143989872142475    0.337984693659993    0.991397297515105  0.0000
  Si     Si        0.856660353634246    0.330881592681886    0.017250819518008  0.0000
  O3     O3        0.079134493834466    0.229737019842783    0.385403917029981  0.0000
  O2     O2        0.410263314658845    0.827659724344845    0.360544677249157  0.0000
  O2     O2        0.909455500728296    0.209463590645520    0.633843975364856  0.0000
  O2     O2        0.590061391121866    0.813573206551222    0.648738702210177  0.0000
  O2     O2        0.883805448368614    0.868555788375494    0.647002081405609  0.0000
  O2     O2        0.615137397813080    0.158454675944539    0.639831415858710  0.0000
  O2     O2        0.123195146526030    0.908955480255301    0.360112264293047  0.0000
  O2     O2        0.385199554348870    0.173477135826193    0.384205338986111  0.0000
  O2     O2        0.997442762298046    0.985044483873759    0.503267514059708  0.0000
  O2     O2        0.512220295737198    0.014743080954636    0.488354010908765  0.0000
  O2     O2        0.988808026121091    0.999349570719391    0.256019883983025  0.0000
  O3     O3        0.502819439698603    0.068285055742014    0.249645446001353  0.0000
  O2     O2        0.013855191725022    0.998852130937796    0.749345761616202  0.0000
  O3     O3        0.476994404344423    0.034178466617643    0.723775642023947  0.0000
  O3     O3        0.646333211786582    0.111513633685862    0.110850151386868  0.0000
  O2     O2        0.877126555413711    0.871149530129083    0.115968539745361  0.0000
  O3     O3        0.359989520296375    0.137515540809123    0.901575056996868  0.0000
  O2     O2        0.130628794314809    0.878392309984201    0.885478121408550  0.0000
  O3     O3        0.411828593721473    0.786532817528973    0.895211868766613  0.0000
  O2     O2        0.089958768207471    0.218303977158787    0.897811353389840  0.0000
  O1     O1        0.582969069505821    0.781917364552251    0.126361267485315  0.0000
  O2     O2        0.914227672557601    0.211470630587848    0.102677125540537  0.0000
  O1     O1        0.510531781447506    0.065381706612034    0.984198515630037  0.0000
  O2     O2        0.004432793369221    0.962818214193299    0.002584491239349  0.0000
  O3     O3        0.133585840313675    0.569070392186070    0.318991483920565  0.0000
  O2     O2        0.362283456285247    0.502805635770003    0.310899019866481  0.0000
  O2     O2        0.863580508065818    0.534642321398428    0.696421891396591  0.0000
  O2     O2        0.637738149251257    0.488641640336259    0.709216589305589  0.0000
  O3     O3        0.241963900711244    0.290388675655812    0.335110865941781  0.0000
  O2     O2        0.260740912795036    0.764734364557361    0.316692041890115  0.0000
  O2     O2        0.759977994392450    0.277196569548758    0.679499576611809  0.0000
  O2     O2        0.740484655532327    0.747257434764571    0.687157919639990  0.0000
  O3     O3        0.123923716251048    0.292801902934474    0.137435106958082  0.0000
  O2     O2        0.366462216520930    0.746610167483587    0.129379807956645  0.0000
  O2     O2        0.867138123247966    0.279411499631167    0.867355113193315  0.0000
  O3     O3        0.636558601815522    0.743886743704826    0.878933592655379  0.0000
  O2     O2        0.836787650652157    0.777943787389312    0.878628919457161  0.0000
  O2     O2        0.664793677224867    0.224741611554985    0.871445191083257  0.0000
  O2     O2        0.159832657199802    0.792141813249141    0.128399679013945  0.0000
  O2     O2        0.340225875217398    0.236107916614978    0.146163095303470  0.0000
  O3     O3        0.629384098840873    0.448409070522203    0.052062017264058  0.0000
  O2     O2        0.877897567366821    0.535330224380214    0.044106074093403  0.0000
  O2     O2        0.367319074711092    0.473482934776328    0.968506587373581  0.0000
  O2     O2        0.128556508709717    0.544288042741858    0.959563813984676  0.0000
  O2     O2        0.766923333528056    0.301043124083682    0.056376586197450  0.0000
  O3     O3        0.745909891778934    0.713241995266409    0.078202270648899  0.0000
  O2     O2        0.234800654121947    0.295880914064446    0.967222952208064  0.0000
  O2     O2        0.261354374741279    0.725840202209932    0.943110247587456  0.0000
