data_c00854.vasp
_audit_creation_method             Generated by GULP
_audit_author_name                 Salvador R. G. Balestra
_symmetry_space_group_name_H-M     'P 1             '
_symmetry_Int_Tables_number        1

loop_
_symmetry_equiv_pos_site_id
_symmetry_equiv_pos_as_xyz
_cell_length_a                       16.9730
_cell_length_b                        7.5708
_cell_length_c                       10.4579
_cell_angle_alpha                   91.6207
_cell_angle_beta                    90.3460
_cell_angle_gamma                   89.5336

loop_
_atom_site_label
_atom_site_type_symbol
_atom_site_fract_x
_atom_site_fract_y
_atom_site_fract_z
_atom_site_charge
  Ge     Ge        0.556730000000016    0.000000000000000    0.122129999999970  0.0000
  Ge     Ge        0.054179203915203    0.963047932465644    0.867956604665136  0.0000
  Ge     Ge        0.163352090392518    0.260022762025413    0.279757868286206  0.0000
  Ge     Ge        0.846359109473874    0.641358609528614    0.706074503288126  0.0000
  Si     Si        0.041631240248368    0.984801131682712    0.364012523402712  0.0000
  Si     Si        0.449379292292674    0.996272658879159    0.372143041548125  0.0000
  Si     Si        0.946124063779459    0.947603814795137    0.616393855493440  0.0000
  Si     Si        0.540553583436904    0.975314326320255    0.635684835536748  0.0000
  Si     Si        0.942430645104316    0.986358418980258    0.107976730359488  0.0000
  Si     Si        0.440612677934303    0.971528166878277    0.885821160904987  0.0000
  Si     Si        0.329251013279641    0.710961061709707    0.278189727686592  0.0000
  Si     Si        0.825666354693181    0.231589987935188    0.723092175892412  0.0000
  Si     Si        0.660640803175356    0.690917273619867    0.715338102152696  0.0000
  Si     Si        0.645077204450419    0.283750961117145    0.728995957736055  0.0000
  Si     Si        0.147358163927032    0.676557819620493    0.275868681844532  0.0000
  Si     Si        0.348525529574583    0.305563794458502    0.284637760190770  0.0000
  Si     Si        0.646592764068032    0.320483399727739    0.025920596648605  0.0000
  Si     Si        0.855011666235385    0.661234443730484    0.008169881428927  0.0000
  Si     Si        0.350612595356748    0.296732135975898    0.985672197706285  0.0000
  Si     Si        0.146328088051731    0.647750494350191    0.980079745179907  0.0000
  Si     Si        0.327658336440495    0.693711302200668    0.979144097986886  0.0000
  Si     Si        0.168830921823685    0.242580841762299    0.979435383187587  0.0000
  Si     Si        0.671447805566032    0.718150298809381    0.011986346617122  0.0000
  Si     Si        0.827713794990510    0.266494507126563    0.023251299752755  0.0000
  O3     O3        0.106320039962559    0.136279087037611    0.377622569502791  0.0000
  O2     O2        0.379037388917471    0.854816712121224    0.357813375077592  0.0000
  O2     O2        0.870852998558949    0.072561949140685    0.650507745367809  0.0000
  O2     O2        0.604753861720174    0.816454282320790    0.632082614999669  0.0000
  O3     O3        0.912693249674630    0.750861748234616    0.613713164406074  0.0000
  O2     O2        0.583883740640855    0.163493288867040    0.649493122481815  0.0000
  O2     O2        0.088041161394277    0.797579478002485    0.359741688157393  0.0000
  O2     O2        0.412731264328448    0.193785913107549    0.363362062546956  0.0000
  O2     O2        0.980493720020287    0.993254431028767    0.479273030985695  0.0000
  O2     O2        0.490619374917959    0.971781447030210    0.507142963821792  0.0000
  O2     O2        0.992311946529680    0.014901596160175    0.235440985771245  0.0000
  O3     O3        0.515403789013926    0.963254498444085    0.266521683178442  0.0000
  O3     O3        0.015864225812333    0.976870261548555    0.717654421326153  0.0000
  O2     O2        0.479565718215476    0.947872844462498    0.748827084756090  0.0000
  O3     O3        0.586417691532868    0.217493789896064    0.111942181628108  0.0000
  O2     O2        0.911926817029365    0.784160548929756    0.096030427822339  0.0000
  O2     O2        0.410849170444771    0.174299993849562    0.905168669548164  0.0000
  O3     O3        0.086509954601915    0.748562291972084    0.890450027371522  0.0000
  O2     O2        0.367700825023897    0.836000943309348    0.890887761127121  0.0000
  O3     O3        0.132404021348996    0.108239633713277    0.877734175509202  0.0000
  O3     O3        0.640149718086662    0.867961026084185    0.106178298627972  0.0000
  O2     O2        0.868980395133860    0.124299768754182    0.112720380922947  0.0000
  O3     O3        0.498801682416127    0.921975318941573    0.998639919175327  0.0000
  O3     O3        0.991121350519491    0.037233306672788    0.984946884317945  0.0000
  O3     O3        0.131286989115138    0.475151304960766    0.301240027582761  0.0000
  O2     O2        0.360241291671290    0.515017285266698    0.311035660482201  0.0000
  O3     O3        0.860069547667660    0.417218246760479    0.682569092105688  0.0000
  O2     O2        0.631099372936180    0.488822323391919    0.698642226813595  0.0000
  O3     O3        0.261629851452930    0.250822933739940    0.322926396393784  0.0000
  O2     O2        0.237253952556050    0.727940603305836    0.314407575737488  0.0000
  O2     O2        0.733093618305540    0.225520507061237    0.687260548903436  0.0000
  O3     O3        0.750393192151851    0.698551078802493    0.670657969012725  0.0000
  O3     O3        0.155333962616037    0.182102858698824    0.123766540212273  0.0000
  O2     O2        0.338766805678993    0.748220400187161    0.128260608474908  0.0000
  O2     O2        0.834765475904874    0.206757591790373    0.874817523972992  0.0000
  O2     O2        0.656094667340618    0.759182254685148    0.862874238539405  0.0000
  O3     O3        0.873822458380064    0.698737552904029    0.861616569181328  0.0000
  O2     O2        0.632375440041743    0.252260902237721    0.879248136343031  0.0000
  O2     O2        0.132896713294550    0.716877013905265    0.126246258846532  0.0000
  O2     O2        0.365200100297400    0.259753033742665    0.135147320373729  0.0000
  O2     O2        0.631291348936268    0.529850418729693    0.041062597000542  0.0000
  O2     O2        0.870272574955815    0.456589172206657    0.041482236484355  0.0000
  O2     O2        0.367181423328957    0.500412557991816    0.954639537711965  0.0000
  O2     O2        0.130975722827386    0.438827079862380    0.968787513435132  0.0000
  O2     O2        0.736878382634097    0.278505436729687    0.064820532552107  0.0000
  O2     O2        0.764521942796104    0.706031742893199    0.035010582577725  0.0000
  O2     O2        0.261517567373553    0.250396486122066    0.949983519924699  0.0000
  O2     O2        0.235979962209456    0.689406283160485    0.941180229861299  0.0000
