data_c00820.vasp
_audit_creation_method             Generated by GULP
_audit_author_name                 Salvador R. G. Balestra
_symmetry_space_group_name_H-M     'P 1             '
_symmetry_Int_Tables_number        1

loop_
_symmetry_equiv_pos_site_id
_symmetry_equiv_pos_as_xyz
_cell_length_a                       17.1168
_cell_length_b                        7.5924
_cell_length_c                       10.2814
_cell_angle_alpha                   89.7912
_cell_angle_beta                    91.3424
_cell_angle_gamma                   90.2303

loop_
_atom_site_label
_atom_site_type_symbol
_atom_site_fract_x
_atom_site_fract_y
_atom_site_fract_z
_atom_site_charge
  Ge     Ge        0.556730000000016    0.000000000000000    0.122129999999970  0.0000
  Ge     Ge        0.435502318697681    0.004059794656485    0.877259609030853  0.0000
  Ge     Ge        0.164030887681258    0.249979029457623    0.263317082058861  0.0000
  Ge     Ge        0.144715204366356    0.671724420054465    0.271659756456648  0.0000
  Si     Si        0.041219013845603    0.975008943692667    0.354859856665564  0.0000
  Si     Si        0.449821710427400    0.999603439018395    0.362075180433334  0.0000
  Si     Si        0.940060477081387    0.988118434369837    0.604270622471990  0.0000
  Si     Si        0.542960379463897    0.999187809184223    0.625271753990793  0.0000
  Si     Si        0.943901783461283    0.995122086908630    0.091604822451997  0.0000
  Si     Si        0.050212237536427    0.988518549859843    0.851591424853911  0.0000
  Si     Si        0.328132478573353    0.713705556756434    0.263872605221625  0.0000
  Si     Si        0.826666333570565    0.276991322493861    0.701734689224631  0.0000
  Si     Si        0.659755755661687    0.713919453371892    0.702604016478187  0.0000
  Si     Si        0.840277054767282    0.680420090145061    0.697573532216349  0.0000
  Si     Si        0.647041235796884    0.307663875818061    0.706184909046855  0.0000
  Si     Si        0.346289979644714    0.304764684392590    0.256580989292286  0.0000
  Si     Si        0.650077499182627    0.318005116467895    0.008773746168838  0.0000
  Si     Si        0.849783491092632    0.677517551635235    0.999982442922362  0.0000
  Si     Si        0.340658005125804    0.325717198062047    0.952942461452782  0.0000
  Si     Si        0.138786292467237    0.672270401968131    0.963297856824438  0.0000
  Si     Si        0.318027855386954    0.721160029663624    0.959480843543336  0.0000
  Si     Si        0.161022233472451    0.271046058887003    0.954548978920444  0.0000
  Si     Si        0.669248167033353    0.719421842231375    0.004191810641205  0.0000
  Si     Si        0.830205445654775    0.279951801167367    0.006055153294810  0.0000
  O3     O3        0.116284652098383    0.102337406019350    0.359915674660507  0.0000
  O2     O2        0.386007448520455    0.845160051370348    0.340984399559709  0.0000
  O2     O2        0.876713076668445    0.142560647374278    0.618633944640978  0.0000
  O2     O2        0.607776761823651    0.844463048264217    0.613162844824121  0.0000
  O2     O2        0.896118424555843    0.799852787647504    0.610188494985692  0.0000
  O2     O2        0.586329534418463    0.189243137493599    0.622966283252920  0.0000
  O3     O3        0.076237437981418    0.780796849213528    0.361577037382278  0.0000
  O2     O2        0.412836762681019    0.191154343134501    0.330706960031849  0.0000
  O2     O2        0.979141968677137    0.008631242839793    0.465637395438339  0.0000
  O2     O2        0.477855825958119    0.992747418347501    0.511862821343790  0.0000
  O2     O2        0.997651841970037    0.018401879840200    0.217944830783283  0.0000
  O3     O3        0.526358707302018    0.974695623183284    0.278976536546212  0.0000
  O2     O2        0.008807968146502    0.002220066098551    0.711636616911967  0.0000
  O3     O3        0.499722271828259    0.965259590822369    0.757879828931709  0.0000
  O3     O3        0.591083985511311    0.211985239923909    0.095306258310517  0.0000
  O2     O2        0.908816057269744    0.796991432197242    0.085733005555915  0.0000
  O3     O3        0.399665913167373    0.217014046850402    0.867961369827111  0.0000
  O2     O2        0.081777649380056    0.789557059544826    0.871109338057022  0.0000
  O3     O3        0.355532220187116    0.863756734130662    0.868259839152343  0.0000
  O2     O2        0.119365283410174    0.133929421135957    0.855749368391141  0.0000
  O3     O3        0.632991589176937    0.856868656072522    0.099089789885007  0.0000
  O2     O2        0.874278432255539    0.137419148529551    0.095673467637978  0.0000
  O1     O1        0.479798970719155    0.952059307894982    0.022286671981964  0.0000
  O2     O2        0.991471168382921    0.040521513107119    0.963798847171968  0.0000
  O1     O1        0.128519722198703    0.454217572566507    0.294665078329849  0.0000
  O2     O2        0.358420204024650    0.513173315064347    0.283112131075069  0.0000
  O2     O2        0.854595618957351    0.475057041260130    0.667953341598857  0.0000
  O2     O2        0.631017255688059    0.513485614620059    0.678516365132005  0.0000
  O3     O3        0.262508445443361    0.246424661312514    0.305255977098413  0.0000
  O3     O3        0.240600721662534    0.727158000494328    0.314089049246139  0.0000
  O2     O2        0.734814499420543    0.257631968085207    0.665929789287969  0.0000
  O2     O2        0.750448308237485    0.730456057407887    0.665509069997680  0.0000
  O3     O3        0.155744993673685    0.198614299008169    0.100111058024136  0.0000
  O2     O2        0.326979565158858    0.769109795013175    0.112172929559536  0.0000
  O2     O2        0.838649403565987    0.234294070838067    0.854148380820449  0.0000
  O2     O2        0.651260979131621    0.769176997464088    0.853222275858985  0.0000
  O2     O2        0.862333680656202    0.719687592988580    0.848021982320542  0.0000
  O2     O2        0.633783728936481    0.264607736995132    0.857978560804932  0.0000
  O3     O3        0.127498132919970    0.730171108262371    0.110482555868614  0.0000
  O2     O2        0.354119176947492    0.265591623301355    0.103146113461814  0.0000
  O2     O2        0.634625927849647    0.524659196456145    0.029323965757588  0.0000
  O2     O2        0.867153803484537    0.473389607419413    0.032515700426266  0.0000
  O2     O2        0.358898126188486    0.532162481345776    0.936148137961440  0.0000
  O2     O2        0.120079014796746    0.463930623132345    0.946809132665077  0.0000
  O2     O2        0.740043421564275    0.274267073028133    0.045336955010763  0.0000
  O2     O2        0.761572701548481    0.721801099386867    0.034236909799225  0.0000
  O2     O2        0.250763732146357    0.286204424613687    0.912448146259575  0.0000
  O2     O2        0.226996101683562    0.707622244056516    0.920956258053665  0.0000
