data_c00832.vasp
_audit_creation_method             Generated by GULP
_audit_author_name                 Salvador R. G. Balestra
_symmetry_space_group_name_H-M     'P 1             '
_symmetry_Int_Tables_number        1

loop_
_symmetry_equiv_pos_site_id
_symmetry_equiv_pos_as_xyz
_cell_length_a                       17.0960
_cell_length_b                        7.5926
_cell_length_c                       10.3113
_cell_angle_alpha                   89.9675
_cell_angle_beta                    89.9236
_cell_angle_gamma                   89.7024

loop_
_atom_site_label
_atom_site_type_symbol
_atom_site_fract_x
_atom_site_fract_y
_atom_site_fract_z
_atom_site_charge
  Ge     Ge        0.556730000000016    0.000000000000000    0.122129999999970  0.0000
  Ge     Ge        0.442712125615429    0.989720603642067    0.872382815668133  0.0000
  Ge     Ge        0.354508919653689    0.678182831206140    0.297368680228664  0.0000
  Ge     Ge        0.335330598057046    0.254795969786666    0.294703586431881  0.0000
  Si     Si        0.050069459676202    0.007836909009305    0.387305240877925  0.0000
  Si     Si        0.457583065581292    0.983025480729137    0.384148230397059  0.0000
  Si     Si        0.955446698126087    0.003857394410494    0.650785425765793  0.0000
  Si     Si        0.557411409719687    0.992639008993681    0.633077004970959  0.0000
  Si     Si        0.946397826013036    0.002589637658250    0.138254357220511  0.0000
  Si     Si        0.059771753263476    0.005686267833696    0.902475866446506  0.0000
  Si     Si        0.151615034910521    0.315854699357628    0.298969943380851  0.0000
  Si     Si        0.851662580452286    0.311795350541678    0.736379233353914  0.0000
  Si     Si        0.659036888951284    0.687881318394346    0.739333879382450  0.0000
  Si     Si        0.839297017881769    0.716334092312145    0.737433741003420  0.0000
  Si     Si        0.671763893429979    0.280321501581345    0.740208462007966  0.0000
  Si     Si        0.170398107278612    0.720466231101798    0.300087122365454  0.0000
  Si     Si        0.675243177632601    0.280012052680719    0.041612534472134  0.0000
  Si     Si        0.836334114046771    0.717802208047636    0.039911596932253  0.0000
  Si     Si        0.329671853046042    0.268226840612786    0.990280488314768  0.0000
  Si     Si        0.172255734228853    0.719677026386273    0.994837146870366  0.0000
  Si     Si        0.352426647074646    0.673877490124612    0.992978468803702  0.0000
  Si     Si        0.149653809158867    0.324998746319054    0.995670307509275  0.0000
  Si     Si        0.655310779594742    0.679779865761438    0.040100307379372  0.0000
  Si     Si        0.855246339849581    0.320423540409669    0.038865845650256  0.0000
  O2     O2        0.088863170436571    0.200679365012723    0.378328498973563  0.0000
  O3     O3        0.423567021057106    0.787431680132524    0.388274592293064  0.0000
  O2     O2        0.910759422421650    0.191754415131842    0.653523485252298  0.0000
  O2     O2        0.600421150837835    0.804681995624023    0.653653557587201  0.0000
  O2     O2        0.890987079367765    0.849258430974935    0.653250019199053  0.0000
  O2     O2        0.618169250907934    0.150912082083400    0.656652568169413  0.0000
  O2     O2        0.117040884160046    0.858442339719614    0.377969819995407  0.0000
  O3     O3        0.383411129704199    0.113098992850160    0.397852183544690  0.0000
  O2     O2        0.006208144288302    0.988566372963499    0.522448220258634  0.0000
  O2     O2        0.527931736459371    0.005999285175221    0.485367693082858  0.0000
  O2     O2        0.986089210862559    0.980676008552845    0.276317194927872  0.0000
  O3     O3        0.492161310891743    0.034563250216232    0.244170230039705  0.0000
  O2     O2        0.014434338109194    0.981863264265083    0.769687944384225  0.0000
  O3     O3        0.479766526581722    0.004855646046038    0.717910244856844  0.0000
  O3     O3        0.634278726443491    0.145194486516188    0.134723212009570  0.0000
  O2     O2        0.876448094229296    0.862012341381702    0.130222254778116  0.0000
  O3     O3        0.367485517891807    0.142253888999697    0.885067970289600  0.0000
  O2     O2        0.131833146288185    0.868035065421636    0.906778941975172  0.0000
  O3     O3        0.409627794390158    0.776787358496343    0.898012675695471  0.0000
  O2     O2        0.091122184883421    0.205812492478514    0.911720636436735  0.0000
  O3     O3        0.595528866591613    0.788217872864533    0.126334417912828  0.0000
  O2     O2        0.913313944931744    0.201116809306813    0.123759780911350  0.0000
  O1     O1        0.513502713938622    0.048588318055806    0.978291312989370  0.0000
  O2     O2        0.006122995848343    0.956300386414712    0.023997021203619  0.0000
  O2     O2        0.139389534156350    0.523071656424952    0.328073036102254  0.0000
  O1     O1        0.372508678680713    0.460652034004939    0.316521464979389  0.0000
  O2     O2        0.866782410324229    0.517029127176389    0.706427071456902  0.0000
  O2     O2        0.643692503935790    0.481105568028184    0.714594830862334  0.0000
  O3     O3        0.237849255650827    0.258840654166197    0.339048493114292  0.0000
  O3     O3        0.259820328425495    0.733417656734734    0.343634995205452  0.0000
  O2     O2        0.762648700196951    0.261349246988958    0.699664935732468  0.0000
  O2     O2        0.747877505686094    0.736783211304833    0.701517934560033  0.0000
  O2     O2        0.138032924773421    0.278379827540148    0.146573302474963  0.0000
  O3     O3        0.368538658124811    0.742920305690477    0.137504745384403  0.0000
  O2     O2        0.868047442318119    0.274155482912521    0.887745273418295  0.0000
  O2     O2        0.641064284005546    0.733772640838543    0.889348548567789  0.0000
  O2     O2        0.849318304512619    0.763060361173151    0.888766129741445  0.0000
  O2     O2        0.663311414709721    0.227510643496569    0.890581472658002  0.0000
  O2     O2        0.166564680787500    0.765088481595821    0.146993697509997  0.0000
  O3     O3        0.341649905966321    0.190096982046071    0.133755983703944  0.0000
  O2     O2        0.638561724422348    0.474338910476183    0.061984109589249  0.0000
  O2     O2        0.873259614470058    0.524873288384249    0.067758068683323  0.0000
  O2     O2        0.367794636193853    0.463836583954918    0.989509848727645  0.0000
  O2     O2        0.131494400858847    0.530644803527341    0.968402043477963  0.0000
  O2     O2        0.766506142355981    0.280107917829448    0.077127261025458  0.0000
  O2     O2        0.744967641339724    0.721970497592213    0.075130407695163  0.0000
  O2     O2        0.238287481078881    0.283803672639067    0.955817474495091  0.0000
  O2     O2        0.262672662839067    0.713723224596218    0.953241528908048  0.0000
