data_c00818.vasp
_audit_creation_method             Generated by GULP
_audit_author_name                 Salvador R. G. Balestra
_symmetry_space_group_name_H-M     'P 1             '
_symmetry_Int_Tables_number        1

loop_
_symmetry_equiv_pos_site_id
_symmetry_equiv_pos_as_xyz
_cell_length_a                       17.1286
_cell_length_b                        7.5984
_cell_length_c                       10.2801
_cell_angle_alpha                   91.2462
_cell_angle_beta                    91.2366
_cell_angle_gamma                   89.6723

loop_
_atom_site_label
_atom_site_type_symbol
_atom_site_fract_x
_atom_site_fract_y
_atom_site_fract_z
_atom_site_charge
  Ge     Ge        0.556730000000016    0.000000000000000    0.122129999999970  0.0000
  Ge     Ge        0.435521189511411    0.989590069703866    0.878444959532360  0.0000
  Ge     Ge        0.164214833300132    0.272862865822500    0.303883053012914  0.0000
  Ge     Ge        0.843537937907073    0.655850017095969    0.725578240411909  0.0000
  Si     Si        0.045987790460601    0.992641542530846    0.389408537129406  0.0000
  Si     Si        0.449542146117594    0.001373235872062    0.373745021188431  0.0000
  Si     Si        0.945346139983447    0.961024270095883    0.639414518096372  0.0000
  Si     Si        0.542277373836089    0.983922646736599    0.636777553607404  0.0000
  Si     Si        0.944467139522324    0.989858302622738    0.130036841439007  0.0000
  Si     Si        0.051819799474529    0.979682472444215    0.891265006412334  0.0000
  Si     Si        0.330425260714275    0.718231995857002    0.297143091288126  0.0000
  Si     Si        0.826619587505895    0.245677658307020    0.739335767970197  0.0000
  Si     Si        0.660920873301893    0.695992229391699    0.734421486436932  0.0000
  Si     Si        0.647505839375477    0.288586171516950    0.745999421034098  0.0000
  Si     Si        0.149316543781325    0.684419671220271    0.303033712695268  0.0000
  Si     Si        0.347075883189968    0.311618156961051    0.298075278336248  0.0000
  Si     Si        0.651599326913130    0.319641976525310    0.048206509151191  0.0000
  Si     Si        0.853847102670821    0.668725786481450    0.035320929991883  0.0000
  Si     Si        0.342530597270634    0.310886022471754    0.993788282689680  0.0000
  Si     Si        0.142854065897786    0.666244999032244    0.000106195684361  0.0000
  Si     Si        0.322850858351190    0.710842256231285    0.994928872710543  0.0000
  Si     Si        0.162569372109181    0.265003247912909    0.994045442607423  0.0000
  Si     Si        0.673787347313908    0.715887447530811    0.038353096479374  0.0000
  Si     Si        0.831176782405513    0.273413312669471    0.044589793424582  0.0000
  O3     O3        0.109699896602198    0.144711603568236    0.402080568380285  0.0000
  O2     O2        0.380976389614664    0.855627549590391    0.384500400420617  0.0000
  O2     O2        0.872250148474071    0.092410649775452    0.663057484860443  0.0000
  O2     O2        0.601486357383245    0.820338759574724    0.655902020059682  0.0000
  O3     O3        0.909313686787642    0.767985399966554    0.634488890159474  0.0000
  O2     O2        0.585319344268455    0.168806941387152    0.667843448616885  0.0000
  O2     O2        0.093203698192804    0.808077704740902    0.388626512742659  0.0000
  O2     O2        0.411694533452005    0.197592673517481    0.376460781151911  0.0000
  O2     O2        0.985070187304937    0.001601865587868    0.504352530238566  0.0000
  O2     O2        0.513858914260039    0.984200277536570    0.487373401097793  0.0000
  O2     O2        0.997856964463157    0.020168626589280    0.256118804464710  0.0000
  O3     O3        0.492418413534799    0.961203918992832    0.240944940258327  0.0000
  O2     O2        0.011694933492162    0.986546346954781    0.750536222301425  0.0000
  O3     O3        0.465624202920802    0.968287821990464    0.720632537381739  0.0000
  O3     O3        0.592725186983931    0.212967979246720    0.133341384818686  0.0000
  O2     O2        0.911451974142400    0.790917008289739    0.124046268325323  0.0000
  O3     O3        0.402158528247256    0.201887907840937    0.908841954684593  0.0000
  O2     O2        0.084695813618021    0.782193055491221    0.912129125453730  0.0000
  O3     O3        0.359576679705006    0.845938694836785    0.900121987088406  0.0000
  O2     O2        0.120517930369463    0.124162749533309    0.897538985483951  0.0000
  O3     O3        0.636819208853550    0.860278188762733    0.130472249223686  0.0000
  O2     O2        0.873876103957723    0.131362421312014    0.134724451591765  0.0000
  O1     O1        0.512651532111341    0.943129879986112    0.977249801135025  0.0000
  O2     O2        0.991616793500330    0.033540386087897    0.001984843160752  0.0000
  O3     O3        0.133164524411128    0.485442497936408    0.334207466162614  0.0000
  O2     O2        0.360820117745818    0.520060078610329    0.323035395840586  0.0000
  O3     O3        0.858617805282710    0.433463553295723    0.700664733608429  0.0000
  O2     O2        0.632078932665024    0.493804816661959    0.717481497132811  0.0000
  O3     O3        0.262240705641754    0.259517247934964    0.344300563803344  0.0000
  O2     O2        0.239752645924958    0.733855000803066    0.335081632133150  0.0000
  O2     O2        0.734475034484092    0.234812704663177    0.702053393150762  0.0000
  O3     O3        0.748146529203748    0.708541286714239    0.683434999255231  0.0000
  O3     O3        0.153496316149420    0.210367408536556    0.142270684237766  0.0000
  O2     O2        0.338553027462682    0.767332924672069    0.145866774761963  0.0000
  O2     O2        0.836091479164159    0.216708917198687    0.893498231760970  0.0000
  O2     O2        0.662321168092962    0.757827989692907    0.885573871182100  0.0000
  O3     O3        0.865617062590647    0.712083502161370    0.885780967566518  0.0000
  O2     O2        0.636587333639190    0.253428370252891    0.898586746047423  0.0000
  O2     O2        0.130324965754327    0.718480474257706    0.150770534187495  0.0000
  O2     O2        0.356629695713242    0.263909817271024    0.145220037590795  0.0000
  O2     O2        0.634398226333849    0.526761588348982    0.064016680148795  0.0000
  O2     O2        0.872176899080035    0.464049629688689    0.064244712912390  0.0000
  O2     O2        0.358928537639487    0.516352808849287    0.971818838826207  0.0000
  O2     O2        0.125034924406925    0.459776351950145    0.975417888175627  0.0000
  O2     O2        0.741633646696611    0.281219043630360    0.087804641729502  0.0000
  O2     O2        0.765234995951994    0.708621074342370    0.073163841625016  0.0000
  O2     O2        0.253060976296376    0.265776854587285    0.955535996021615  0.0000
  O2     O2        0.230866086939484    0.707160017100397    0.962619798178045  0.0000
