data_c00862.vasp
_audit_creation_method             Generated by GULP
_audit_author_name                 Salvador R. G. Balestra
_symmetry_space_group_name_H-M     'P 1             '
_symmetry_Int_Tables_number        1

loop_
_symmetry_equiv_pos_site_id
_symmetry_equiv_pos_as_xyz
_cell_length_a                       16.9026
_cell_length_b                        7.5945
_cell_length_c                       10.4365
_cell_angle_alpha                   90.9447
_cell_angle_beta                    90.5526
_cell_angle_gamma                   90.2205

loop_
_atom_site_label
_atom_site_type_symbol
_atom_site_fract_x
_atom_site_fract_y
_atom_site_fract_z
_atom_site_charge
  Ge     Ge        0.556730000000016    0.000000000000000    0.122129999999970  0.0000
  Ge     Ge        0.059413450085443    0.969898787151396    0.868024726128996  0.0000
  Ge     Ge        0.168755341009925    0.263202047024480    0.281166368427860  0.0000
  Ge     Ge        0.329657533370333    0.711626265704912    0.973623730881613  0.0000
  Si     Si        0.047139301819215    0.983689080012821    0.362624925659007  0.0000
  Si     Si        0.452798403153063    0.006287423320420    0.375783638165526  0.0000
  Si     Si        0.950701565637218    0.977134982334595    0.617980897175719  0.0000
  Si     Si        0.550327674899803    0.995552192913997    0.633961282741367  0.0000
  Si     Si        0.948037963798262    0.000261641573356    0.106443411891025  0.0000
  Si     Si        0.444167253614957    0.990001349124268    0.881559746917676  0.0000
  Si     Si        0.332802933670242    0.721547921124571    0.278648894684111  0.0000
  Si     Si        0.835452004966332    0.269144341615547    0.719473306789648  0.0000
  Si     Si        0.666714206847471    0.709908936569746    0.719293115961395  0.0000
  Si     Si        0.849724553895445    0.672870855481852    0.716084196582756  0.0000
  Si     Si        0.653820012146646    0.304213333271351    0.719744230528150  0.0000
  Si     Si        0.151002120868205    0.674349100089556    0.275129194240213  0.0000
  Si     Si        0.354613707612255    0.315933994716544    0.283525087915536  0.0000
  Si     Si        0.651317393647759    0.319636130024162    0.017697181317279  0.0000
  Si     Si        0.856197851562234    0.676642237753960    0.013050161105599  0.0000
  Si     Si        0.358274707380000    0.313184918794636    0.985904204404223  0.0000
  Si     Si        0.146174977923731    0.646743508916450    0.975752311129531  0.0000
  Si     Si        0.174541678232398    0.249119022313427    0.979887183396730  0.0000
  Si     Si        0.672724623223539    0.719971414192631    0.016075041483535  0.0000
  Si     Si        0.833921294178619    0.279548668232094    0.019069046860503  0.0000
  O3     O3        0.114627717439383    0.130432923352370    0.379404901138842  0.0000
  O2     O2        0.382158998708123    0.863116925198541    0.363105346244464  0.0000
  O2     O2        0.887103328289789    0.132559308488750    0.638209729725468  0.0000
  O2     O2        0.615393411829704    0.839542016995216    0.631649587350638  0.0000
  O2     O2        0.907500915982707    0.788368690380147    0.630529277165321  0.0000
  O2     O2        0.594726051531927    0.184139493881065    0.634365465126858  0.0000
  O2     O2        0.089958638855365    0.794580790726959    0.353881166786871  0.0000
  O2     O2        0.417514563298269    0.203926666778188    0.365712980707907  0.0000
  O2     O2        0.985066578516952    0.987401484162266    0.476522743336010  0.0000
  O2     O2        0.493543099803145    0.981509503113166    0.512500762658758  0.0000
  O2     O2        0.999205100666929    0.026773285168492    0.233590809000839  0.0000
  O3     O3        0.519570020124466    0.974402097822893    0.271586343988390  0.0000
  O3     O3        0.022974769323162    0.995438529441585    0.716328905986582  0.0000
  O2     O2        0.496565898509759    0.975310783042267    0.757146756862733  0.0000
  O3     O3        0.589911673723460    0.213363314667282    0.100409213047203  0.0000
  O2     O2        0.915377933861434    0.799140624031655    0.096789617471738  0.0000
  O2     O2        0.415817534812970    0.191582780178935    0.901783436312305  0.0000
  O3     O3        0.082313513888846    0.751576449335783    0.894244724358033  0.0000
  O3     O3        0.369294444234588    0.861672019314804    0.871067286811610  0.0000
  O3     O3        0.142554186166351    0.104072336549672    0.881700200799550  0.0000
  O3     O3        0.637330532119561    0.861397451226112    0.110436740000738  0.0000
  O2     O2        0.875522489619991    0.138630771073340    0.109444869077678  0.0000
  O3     O3        0.491185405898239    0.926729721456949    0.006724324286965  0.0000
  O3     O3        0.997147502650478    0.050749143060226    0.983177062158869  0.0000
  O3     O3        0.132282316145528    0.473448962803344    0.300638434078685  0.0000
  O2     O2        0.368002359142626    0.526112393812288    0.301047469576473  0.0000
  O2     O2        0.864654874887721    0.466597815544446    0.688374310297454  0.0000
  O2     O2        0.637851963225936    0.509435517790251    0.693081238076013  0.0000
  O3     O3        0.267326959055493    0.265642472567185    0.325928106427782  0.0000
  O2     O2        0.240767910636633    0.723067531969528    0.319895032930355  0.0000
  O2     O2        0.743164925090419    0.252318073043371    0.681537126445417  0.0000
  O2     O2        0.759273224548852    0.724034107896629    0.684720726239472  0.0000
  O3     O3        0.163581796714536    0.186344714691054    0.124978562921733  0.0000
  O3     O3        0.337681575327821    0.777712609999113    0.132216036145065  0.0000
  O2     O2        0.845257462023843    0.228185547314775    0.869585601053699  0.0000
  O2     O2        0.656036804735824    0.767615255391470    0.867415181664898  0.0000
  O2     O2        0.872334272862728    0.717641237965420    0.863887808311115  0.0000
  O2     O2        0.638532000842056    0.263637202371601    0.868533971178976  0.0000
  O2     O2        0.142244821998500    0.713350433260386    0.123849231830006  0.0000
  O2     O2        0.370746888051236    0.263442374675523    0.135138084351392  0.0000
  O2     O2        0.635879095363815    0.526706598477906    0.039611627881560  0.0000
  O2     O2        0.872634577040907    0.472772221030260    0.044105984144958  0.0000
  O3     O3        0.378977625822106    0.512801156639524    0.959921754042035  0.0000
  O2     O2        0.129899763815817    0.437277897806717    0.966247603460459  0.0000
  O2     O2        0.741954735945884    0.277739810753869    0.055676464212565  0.0000
  O2     O2        0.766163883672993    0.719775789687897    0.044265383695402  0.0000
  O2     O2        0.266686576473924    0.280345809997428    0.950363807357663  0.0000
  O3     O3        0.232869587191392    0.690870340533550    0.924862633995782  0.0000
