data_c00851.vasp
_audit_creation_method             Generated by GULP
_audit_author_name                 Salvador R. G. Balestra
_symmetry_space_group_name_H-M     'P 1             '
_symmetry_Int_Tables_number        1

loop_
_symmetry_equiv_pos_site_id
_symmetry_equiv_pos_as_xyz
_cell_length_a                       17.0329
_cell_length_b                        7.6020
_cell_length_c                       10.3359
_cell_angle_alpha                   90.4512
_cell_angle_beta                    89.9059
_cell_angle_gamma                   90.0093

loop_
_atom_site_label
_atom_site_type_symbol
_atom_site_fract_x
_atom_site_fract_y
_atom_site_fract_z
_atom_site_charge
  Ge     Ge        0.556730000000016    0.000000000000000    0.122129999999970  0.0000
  Ge     Ge        0.061838278875991    0.977604544341789    0.868318199027867  0.0000
  Ge     Ge        0.166940726154435    0.257515294437275    0.284258879187205  0.0000
  Ge     Ge        0.331935812987983    0.721810365390280    0.293573111197482  0.0000
  Si     Si        0.044969136232012    0.979375645176442    0.367668433733578  0.0000
  Si     Si        0.452325878052322    0.002854651123490    0.380476597723238  0.0000
  Si     Si        0.948302200325835    0.979199221701522    0.624016481623686  0.0000
  Si     Si        0.550531154381805    0.000394031258530    0.636783842908143  0.0000
  Si     Si        0.948761319079699    0.997309283057007    0.110252202824419  0.0000
  Si     Si        0.445124632240248    0.994507922728014    0.880651643355787  0.0000
  Si     Si        0.833859234596776    0.271918951962229    0.728294482773329  0.0000
  Si     Si        0.666186071836031    0.711403509592471    0.734073936214594  0.0000
  Si     Si        0.846729829498644    0.675099939463941    0.723700880722011  0.0000
  Si     Si        0.653678528060953    0.305075168552295    0.736164364158979  0.0000
  Si     Si        0.147186569457361    0.670978161817334    0.284369184688676  0.0000
  Si     Si        0.352238429580129    0.311755045950414    0.294873026338310  0.0000
  Si     Si        0.653437318312038    0.320284137539937    0.036937577842141  0.0000
  Si     Si        0.855481233341840    0.675633449306690    0.025074472362805  0.0000
  Si     Si        0.355918553928888    0.314366627650873    0.991677408112710  0.0000
  Si     Si        0.153038585755764    0.659788606323350    0.983342533881670  0.0000
  Si     Si        0.333721937720068    0.713798655569025    0.985328695254626  0.0000
  Si     Si        0.175449657756122    0.257261271825259    0.979648062911434  0.0000
  Si     Si        0.674538532294509    0.719352454886796    0.034403089280529  0.0000
  Si     Si        0.834452754046533    0.279713027746957    0.031003067239376  0.0000
  O3     O3        0.114396770692987    0.119925622344474    0.383000614985371  0.0000
  O3     O3        0.381778191653466    0.864841252298189    0.393012291026007  0.0000
  O2     O2        0.885937113710708    0.135708262861368    0.647023436788173  0.0000
  O2     O2        0.612393671678059    0.841100675243817    0.651021411262519  0.0000
  O2     O2        0.904958431345987    0.791738050844847    0.638505653828126  0.0000
  O2     O2        0.594125817782666    0.187173339011824    0.653242929753349  0.0000
  O2     O2        0.083262214043369    0.785163745918373    0.363438907598964  0.0000
  O2     O2        0.414884957372292    0.197879049441246    0.375109059309310  0.0000
  O2     O2        0.980398041150259    0.992000618948782    0.479060821738294  0.0000
  O2     O2        0.515407893686105    0.991971205679499    0.494097702138801  0.0000
  O2     O2        0.002231452376403    0.025607783207402    0.234051946132904  0.0000
  O3     O3        0.497190883414841    0.954704448150045    0.248891275847612  0.0000
  O3     O3        0.022661062558511    0.992878863675853    0.716726431590163  0.0000
  O2     O2        0.478194902446054    0.984716256968883    0.735655047400972  0.0000
  O3     O3        0.593578214871225    0.212292831955163    0.123412597827646  0.0000
  O2     O2        0.916130992711711    0.796881349713503    0.104346513855211  0.0000
  O2     O2        0.416481673380041    0.194174702732798    0.911251839770707  0.0000
  O3     O3        0.094324414046256    0.765079164385327    0.893626716675856  0.0000
  O2     O2        0.374166049180891    0.854196890242218    0.891065830631927  0.0000
  O3     O3        0.139088806888004    0.124921472074131    0.877198605201255  0.0000
  O3     O3        0.636458707066417    0.858836332510627    0.128046084990955  0.0000
  O2     O2        0.876862971912428    0.135798253519436    0.118253688785759  0.0000
  O3     O3        0.511162380238711    0.940721496496588    0.980493487408635  0.0000
  O3     O3        0.995476101451822    0.045805220442598    0.982338159491040  0.0000
  O3     O3        0.131076910592182    0.467665755186718    0.305623342563946  0.0000
  O3     O3        0.367509181839607    0.513983263243932    0.323350104980155  0.0000
  O2     O2        0.861901554452639    0.469383906852236    0.694477256704817  0.0000
  O2     O2        0.637735304854876    0.510934705858019    0.710288332285245  0.0000
  O3     O3        0.264282678685269    0.256125650006731    0.330720511151733  0.0000
  O3     O3        0.233597564780051    0.724738715168250    0.331761711259776  0.0000
  O2     O2        0.742036896213258    0.253218245891841    0.693379148472336  0.0000
  O2     O2        0.757131586983644    0.726662092058838    0.690977567394033  0.0000
  O3     O3        0.161898898352521    0.189234907094474    0.124831776635371  0.0000
  O3     O3        0.343107849852053    0.776514582327354    0.132665634234519  0.0000
  O2     O2        0.844223849696974    0.231831210824371    0.879650900558829  0.0000
  O2     O2        0.660275757581164    0.767341236287239    0.883959545147229  0.0000
  O2     O2        0.867436894648839    0.716139143825334    0.873179569473956  0.0000
  O2     O2        0.639629665587513    0.263447672885432    0.887109908601248  0.0000
  O2     O2        0.139918636044980    0.718914984921126    0.132134133585907  0.0000
  O2     O2        0.367061783927972    0.270322903435930    0.142428839124676  0.0000
  O2     O2        0.637670594548695    0.526452657705546    0.058673847657714  0.0000
  O2     O2        0.873031833246238    0.471851544467709    0.055934731920549  0.0000
  O2     O2        0.373453799798203    0.520487722975920    0.967681489713060  0.0000
  O2     O2        0.137319503325865    0.451856511269848    0.968623431552071  0.0000
  O2     O2        0.743620176986020    0.278268177442470    0.072099820407060  0.0000
  O2     O2        0.766937775049185    0.719063210454294    0.065002720469106  0.0000
  O2     O2        0.267906228740053    0.269944699303398    0.949140763800367  0.0000
  O2     O2        0.242701044446192    0.704103680007201    0.945162727835855  0.0000
