data_c00882.vasp
_audit_creation_method             Generated by GULP
_audit_author_name                 Salvador R. G. Balestra
_symmetry_space_group_name_H-M     'P 1             '
_symmetry_Int_Tables_number        1

loop_
_symmetry_equiv_pos_site_id
_symmetry_equiv_pos_as_xyz
_cell_length_a                       16.8487
_cell_length_b                        7.5441
_cell_length_c                       10.4921
_cell_angle_alpha                   90.9985
_cell_angle_beta                    89.5995
_cell_angle_gamma                   89.5457

loop_
_atom_site_label
_atom_site_type_symbol
_atom_site_fract_x
_atom_site_fract_y
_atom_site_fract_z
_atom_site_charge
  Ge     Ge        0.556730000000016    0.000000000000000    0.122129999999970  0.0000
  Ge     Ge        0.062858731643498    0.949102644111462    0.855823927793465  0.0000
  Ge     Ge        0.644736232157851    0.321348244286233    0.012672176307195  0.0000
  Ge     Ge        0.675502651507067    0.733096064433346    0.999144926974397  0.0000
  Si     Si        0.044501884334620    0.957788746237897    0.345049636889959  0.0000
  Si     Si        0.447226500766882    0.970366571533750    0.369828224808922  0.0000
  Si     Si        0.951815191474512    0.944188855148730    0.606967652881857  0.0000
  Si     Si        0.548686818131857    0.966236704303316    0.621615285746340  0.0000
  Si     Si        0.948583654029233    0.973443973273314    0.090244920281569  0.0000
  Si     Si        0.453378039215423    0.950448030994006    0.879146784725226  0.0000
  Si     Si        0.165175796056230    0.237349627835284    0.259113792244088  0.0000
  Si     Si        0.330980900633370    0.684892258254645    0.270376907078583  0.0000
  Si     Si        0.831346089237918    0.233503401214198    0.705868551445537  0.0000
  Si     Si        0.669711228212288    0.687868721203018    0.699220116210551  0.0000
  Si     Si        0.850577993257728    0.636227261719436    0.692074659428064  0.0000
  Si     Si        0.649986368023181    0.276275816218738    0.713999941839930  0.0000
  Si     Si        0.148801026428182    0.646334192366403    0.257324394483823  0.0000
  Si     Si        0.347948539832642    0.278235114541072    0.274376638066784  0.0000
  Si     Si        0.859351880761839    0.648963023823047    0.990345993398728  0.0000
  Si     Si        0.360711085415957    0.274443953620959    0.979776125800798  0.0000
  Si     Si        0.154038009835750    0.627920395493526    0.962084975024269  0.0000
  Si     Si        0.337090974080970    0.674418930628200    0.973460217495784  0.0000
  Si     Si        0.177487405864697    0.225275394681410    0.964215732949192  0.0000
  Si     Si        0.831674185479947    0.256014207718400    0.004448388548144  0.0000
  O2     O2        0.112355387389635    0.108332753141792    0.344221365404337  0.0000
  O2     O2        0.379276272172055    0.821344244964351    0.358083913104811  0.0000
  O2     O2        0.881358888954934    0.087346941858301    0.627545435280691  0.0000
  O2     O2        0.615676916789577    0.811385032791676    0.609224790742448  0.0000
  O2     O2        0.913406702078234    0.748083061209328    0.610353106003943  0.0000
  O2     O2        0.589514118224174    0.159586190929848    0.628647215533645  0.0000
  O2     O2        0.086405678557960    0.764377320606199    0.338638875297792  0.0000
  O2     O2        0.406111601590558    0.164440642773558    0.362142987135373  0.0000
  O2     O2        0.992945999163179    0.974516168371540    0.472053100444278  0.0000
  O2     O2        0.491449012284604    0.955851081603463    0.502104361580401  0.0000
  O2     O2        0.985234806643543    0.986508658002296    0.229220010570517  0.0000
  O3     O3        0.512226126761457    0.940153217146489    0.260448315690172  0.0000
  O3     O3        0.019105592829947    0.969463065177771    0.711530085124396  0.0000
  O2     O2        0.493245743876167    0.930270399831631    0.742450516536612  0.0000
  O1     O1        0.576807586432743    0.219452797782737    0.108655374938599  0.0000
  O2     O2        0.925167315929874    0.769405918105490    0.059189318462926  0.0000
  O2     O2        0.424042125918492    0.154624834399037    0.902063984270197  0.0000
  O3     O3        0.095418374426783    0.732890715879136    0.872856847865755  0.0000
  O2     O2        0.379405922812583    0.815949326122647    0.885055452800059  0.0000
  O3     O3        0.145280318113734    0.085084801697241    0.865164573247889  0.0000
  O1     O1        0.648110184952042    0.898672739492368    0.100503660668337  0.0000
  O2     O2        0.872716723299196    0.105345537736737    0.088309330136095  0.0000
  O3     O3        0.512196949731663    0.899442744013299    0.990195369437806  0.0000
  O3     O3        0.007174203000376    0.034560555284913    0.980313645448581  0.0000
  O2     O2        0.134576418987457    0.438863534387566    0.281635808533566  0.0000
  O2     O2        0.360619914043735    0.486299849068136    0.301495056308674  0.0000
  O2     O2        0.866836197353570    0.426458863439778    0.673262736198653  0.0000
  O2     O2        0.635527221052039    0.487719523824074    0.699423248688395  0.0000
  O2     O2        0.257084056524442    0.224678179062760    0.300777837422790  0.0000
  O2     O2        0.237391073268535    0.700519402593332    0.300313265267442  0.0000
  O2     O2        0.739155466319980    0.226746451488314    0.666185558922844  0.0000
  O2     O2        0.760908329385082    0.681843600023869    0.649030419988057  0.0000
  O2     O2        0.159312466732751    0.176199291493624    0.111499436568591  0.0000
  O2     O2        0.345873713760772    0.729572457932062    0.122324344275441  0.0000
  O2     O2        0.835009735591532    0.194115837462708    0.855845711229599  0.0000
  O3     O3        0.668964988757683    0.777071282264106    0.838056116795173  0.0000
  O2     O2        0.863710454446646    0.691128168262292    0.839435510529983  0.0000
  O3     O3        0.635543933782508    0.229805449416801    0.859803733112090  0.0000
  O2     O2        0.136285426531642    0.687869414221436    0.108657719492960  0.0000
  O2     O2        0.374055078510366    0.230907822024853    0.128859395475865  0.0000
  O1     O1        0.624108617639521    0.540285125058124    0.023302758197957  0.0000
  O2     O2        0.879020521839123    0.442376441592341    0.016402157401701  0.0000
  O2     O2        0.377472143163908    0.480369666190550    0.952483862703299  0.0000
  O2     O2        0.140107164303974    0.419494740677752    0.940388790452308  0.0000
  O3     O3        0.742933461947703    0.281316768770511    0.053186398656174  0.0000
  O3     O3        0.772869253566607    0.691409862547233    0.040726364537516  0.0000
  O2     O2        0.271876802802973    0.228687073920953    0.941404919036449  0.0000
  O2     O2        0.245769901458689    0.672025312323467    0.932387323011509  0.0000
