data_c00816.vasp
_audit_creation_method             Generated by GULP
_audit_author_name                 Salvador R. G. Balestra
_symmetry_space_group_name_H-M     'P 1             '
_symmetry_Int_Tables_number        1

loop_
_symmetry_equiv_pos_site_id
_symmetry_equiv_pos_as_xyz
_cell_length_a                       17.2071
_cell_length_b                        7.6241
_cell_length_c                       10.2508
_cell_angle_alpha                   90.1245
_cell_angle_beta                    91.7345
_cell_angle_gamma                   90.2818

loop_
_atom_site_label
_atom_site_type_symbol
_atom_site_fract_x
_atom_site_fract_y
_atom_site_fract_z
_atom_site_charge
  Ge     Ge        0.556730000000016    0.000000000000000    0.122129999999970  0.0000
  Ge     Ge        0.434934766305926    0.006461584029440    0.877480292559981  0.0000
  Ge     Ge        0.164607062803396    0.277816277288004    0.301981383966110  0.0000
  Ge     Ge        0.829847615765678    0.287214308423705    0.727063231132922  0.0000
  Si     Si        0.048793501290196    0.990155537433683    0.385622034521258  0.0000
  Si     Si        0.448865825515931    0.010981185502501    0.372612930545002  0.0000
  Si     Si        0.945061913845510    0.996272261478357    0.634006060800774  0.0000
  Si     Si        0.541635228359666    0.008087468315831    0.636890252061478  0.0000
  Si     Si        0.946473849245667    0.999366990790907    0.125851738201164  0.0000
  Si     Si        0.052964993127417    0.990526577070470    0.886409160494169  0.0000
  Si     Si        0.331776863543033    0.724426567709984    0.294505246378972  0.0000
  Si     Si        0.658198713306426    0.720213734817563    0.743631162719611  0.0000
  Si     Si        0.837318383923242    0.699576544578781    0.731843470082624  0.0000
  Si     Si        0.648033158204725    0.311894124131763    0.738115330851817  0.0000
  Si     Si        0.151072888409846    0.687299778214931    0.298046775624182  0.0000
  Si     Si        0.346610916557452    0.320235867933772    0.297866904920370  0.0000
  Si     Si        0.656058438139790    0.317528399309225    0.043296903888157  0.0000
  Si     Si        0.850074128869975    0.683972383518000    0.036381807119657  0.0000
  Si     Si        0.342276097461013    0.323430250522969    0.992213167045048  0.0000
  Si     Si        0.143732390746371    0.675580522464072    0.994404177313916  0.0000
  Si     Si        0.323332364243089    0.721660300249782    0.991282276231246  0.0000
  Si     Si        0.163258553703054    0.276115537379582    0.990596766811335  0.0000
  Si     Si        0.671325579187261    0.715590259693520    0.047052519719449  0.0000
  Si     Si        0.835118270752048    0.284332375914336    0.037888483923793  0.0000
  O3     O3        0.110820043342487    0.146096722601877    0.400756057396337  0.0000
  O2     O2        0.381483735248962    0.861496660867395    0.382915041354005  0.0000
  O3     O3        0.890365668552791    0.164587766207817    0.634071105765156  0.0000
  O2     O2        0.602198068258989    0.850386205678287    0.663358513732276  0.0000
  O2     O2        0.889900085101552    0.827212654505958    0.648151923434738  0.0000
  O2     O2        0.582955858938159    0.196473898810536    0.661858841149416  0.0000
  O2     O2        0.096903608612452    0.809495878346043    0.383667657218850  0.0000
  O2     O2        0.410515629840640    0.204508838481185    0.376813030108570  0.0000
  O2     O2        0.987399556850057    0.982720718059383    0.498179166890069  0.0000
  O2     O2        0.513940294937600    0.995478070163232    0.486326740698703  0.0000
  O2     O2        0.002083471436376    0.022685724501186    0.250417695399235  0.0000
  O3     O3        0.489622124053020    0.976171827277947    0.238273450581161  0.0000
  O2     O2        0.012208091180545    0.004964124727558    0.745601200070212  0.0000
  O3     O3        0.464961563306378    0.993385010960886    0.719378170870101  0.0000
  O3     O3        0.599183553849309    0.206135454729929    0.129129934706802  0.0000
  O2     O2        0.909034173880590    0.804293841875533    0.122399108733824  0.0000
  O3     O3        0.401935287621512    0.215880035754461    0.909988425106556  0.0000
  O2     O2        0.086129306438360    0.793764368541502    0.905536460327763  0.0000
  O3     O3        0.359632205236176    0.859608183347051    0.896283899569113  0.0000
  O2     O2        0.121243754671585    0.136005121321299    0.894610260778031  0.0000
  O3     O3        0.630694956854794    0.847867126450539    0.141158672170495  0.0000
  O2     O2        0.880209354329619    0.147860655639599    0.131594384875171  0.0000
  O1     O1        0.512364846034269    0.955039170706445    0.975192062019367  0.0000
  O2     O2        0.992592974910408    0.037896236510668    0.995958850821988  0.0000
  O3     O3        0.133773060459627    0.488600814604106    0.330476902862703  0.0000
  O2     O2        0.362076618386599    0.527287308255936    0.322504657363531  0.0000
  O3     O3        0.855602661806700    0.501704828791575    0.697801603277876  0.0000
  O2     O2        0.631598821364350    0.519228679867567    0.717386620726505  0.0000
  O3     O3        0.262194929076545    0.267412729482474    0.344452638725434  0.0000
  O2     O2        0.241354819364224    0.736222297997158    0.329938472839190  0.0000
  O3     O3        0.732064869673845    0.263880081128121    0.686838351658803  0.0000
  O2     O2        0.746830017940891    0.743848516463161    0.699040092572163  0.0000
  O3     O3        0.154311820757446    0.219728789627517    0.139585722200693  0.0000
  O2     O2        0.340283823597733    0.775056801076224    0.142469459751123  0.0000
  O3     O3        0.841769021210363    0.228383270150841    0.888358001750162  0.0000
  O2     O2        0.655121841803447    0.769865363780376    0.896006454825757  0.0000
  O2     O2        0.856955621738480    0.734709727863578    0.884882514141360  0.0000
  O2     O2        0.641982068908671    0.265588095811666    0.891152280117112  0.0000
  O2     O2        0.131232662859858    0.723432870468612    0.145212256758788  0.0000
  O2     O2        0.354854620329967    0.276143802928023    0.144796960302967  0.0000
  O2     O2        0.637196549257813    0.520753552758366    0.067315846259800  0.0000
  O2     O2        0.871268874250467    0.480014347729179    0.057385421303902  0.0000
  O2     O2        0.358887887720971    0.528875273355150    0.968359144658871  0.0000
  O2     O2        0.125908634261964    0.469829410461128    0.969611393302010  0.0000
  O2     O2        0.746023870889445    0.280753461131218    0.080490454900326  0.0000
  O2     O2        0.763073991465631    0.718669167531084    0.080906744246958  0.0000
  O2     O2        0.253155879306377    0.278264486696058    0.951900588020637  0.0000
  O2     O2        0.231614511493401    0.717935662955201    0.958740131822511  0.0000
