data_c00835.vasp
_audit_creation_method             Generated by GULP
_audit_author_name                 Salvador R. G. Balestra
_symmetry_space_group_name_H-M     'P 1             '
_symmetry_Int_Tables_number        1

loop_
_symmetry_equiv_pos_site_id
_symmetry_equiv_pos_as_xyz
_cell_length_a                       17.0303
_cell_length_b                        7.5856
_cell_length_c                       10.3063
_cell_angle_alpha                   88.9527
_cell_angle_beta                    89.8274
_cell_angle_gamma                   90.3876

loop_
_atom_site_label
_atom_site_type_symbol
_atom_site_fract_x
_atom_site_fract_y
_atom_site_fract_z
_atom_site_charge
  Ge     Ge        0.556730000000016    0.000000000000000    0.122129999999970  0.0000
  Ge     Ge        0.445345645320077    0.029255404507611    0.871263637644461  0.0000
  Ge     Ge        0.333310720494029    0.733605527690917    0.302692975770584  0.0000
  Ge     Ge        0.355096948956175    0.353832278724241    0.984080662802300  0.0000
  Si     Si        0.050414830307346    0.989788016495108    0.383058270966773  0.0000
  Si     Si        0.453647347871212    0.010802674436849    0.380976890215118  0.0000
  Si     Si        0.955056329178151    0.004577132675952    0.645021299750537  0.0000
  Si     Si        0.556105212460680    0.015857139245965    0.628828935957320  0.0000
  Si     Si        0.945968005143763    0.998474340282757    0.133932705233526  0.0000
  Si     Si        0.059201081682122    0.010112739833852    0.897818613269640  0.0000
  Si     Si        0.170779065640274    0.278517128862583    0.288407478897252  0.0000
  Si     Si        0.838219613097492    0.288806778922656    0.732776690207713  0.0000
  Si     Si        0.671303299528905    0.727797067866928    0.734578725641163  0.0000
  Si     Si        0.851898345157951    0.693435309713179    0.730246022698472  0.0000
  Si     Si        0.657204918379351    0.319795354606579    0.736430235564605  0.0000
  Si     Si        0.149444021011866    0.680564719224717    0.301058177511955  0.0000
  Si     Si        0.351754342083027    0.318611711010690    0.289906951446695  0.0000
  Si     Si        0.653833116565343    0.324025239884772    0.037015826278132  0.0000
  Si     Si        0.855900815768859    0.680944053996741    0.032743289346653  0.0000
  Si     Si        0.149314271641365    0.689544002394433    0.998722046185422  0.0000
  Si     Si        0.330402646591813    0.758629098805564    0.997411533809675  0.0000
  Si     Si        0.171781536184420    0.298314939388166    0.983649529457070  0.0000
  Si     Si        0.675064716057168    0.724000716724657    0.035970359739439  0.0000
  Si     Si        0.835576454444286    0.283586056325438    0.035638387905244  0.0000
  O2     O2        0.121241111053630    0.130370014650745    0.365641272779772  0.0000
  O3     O3        0.387435163884781    0.862375864087779    0.406179189069502  0.0000
  O2     O2        0.889256671729529    0.157056002640113    0.647591686258311  0.0000
  O2     O2        0.618900991296034    0.859267331602916    0.648324901837942  0.0000
  O2     O2        0.911192931143952    0.815052826126593    0.646344891696440  0.0000
  O2     O2        0.597412116426355    0.204942711644729    0.652569129524498  0.0000
  O2     O2        0.086328264205840    0.792826918669707    0.381993229059614  0.0000
  O2     O2        0.410838886236004    0.200492844001683    0.376663574194595  0.0000
  O2     O2        0.007265902637396    0.023690447561599    0.517394619381061  0.0000
  O2     O2        0.524828501806352    0.013600441174972    0.482294673119615  0.0000
  O2     O2        0.985930277847094    0.015561169435885    0.272047159866298  0.0000
  O3     O3        0.492248454128266    0.960899398872455    0.244863005287683  0.0000
  O2     O2        0.012769678374820    0.025895812220606    0.765200795293974  0.0000
  O3     O3        0.480061147871418    0.991370469281823    0.717714571295825  0.0000
  O3     O3        0.593962852959203    0.213841347572449    0.124375734591724  0.0000
  O2     O2        0.914453229422582    0.798971051148474    0.116835920290356  0.0000
  O1     O1        0.421484305544075    0.246366254981536    0.890797956777639  0.0000
  O2     O2        0.094348853644798    0.813904168770205    0.911358978335598  0.0000
  O3     O3        0.359544145705258    0.909471989717593    0.900207547632979  0.0000
  O2     O2        0.128549705536142    0.154937839511467    0.896058399084960  0.0000
  O3     O3        0.635602642657371    0.857138812505057    0.130903437816585  0.0000
  O2     O2        0.874567367353502    0.136483723930109    0.127218004136105  0.0000
  O1     O1        0.512290100612080    0.952406506156799    0.979803783735363  0.0000
  O2     O2        0.005092696471379    0.054519919438356    0.019746046478276  0.0000
  O2     O2        0.135330895403293    0.470465837318898    0.319979109196424  0.0000
  O3     O3        0.369466823882380    0.522016096980983    0.311381251466380  0.0000
  O2     O2        0.866356545137177    0.488520069330189    0.700549934945490  0.0000
  O2     O2        0.642462464976971    0.527354058772289    0.710780792639225  0.0000
  O2     O2        0.261665598904594    0.272461349156702    0.332363805039753  0.0000
  O3     O3        0.235835274053607    0.729175931891942    0.348366613898365  0.0000
  O2     O2        0.746158677367501    0.269956679641663    0.698394297715289  0.0000
  O2     O2        0.762633739946402    0.745462641373905    0.694316084415116  0.0000
  O2     O2        0.169496032684578    0.240381127186786    0.135365954480921  0.0000
  O3     O3        0.338918424763544    0.816995767013278    0.145866791809997  0.0000
  O2     O2        0.848595538098243    0.240097446628443    0.884529679749740  0.0000
  O2     O2        0.662567210997657    0.779617063281792    0.884724604444081  0.0000
  O2     O2        0.869032224461618    0.728530708017663    0.881230867861239  0.0000
  O2     O2        0.638748602545369    0.271403200569432    0.886760337984737  0.0000
  O2     O2        0.137130994445439    0.733741319715906    0.149853490500671  0.0000
  O3     O3        0.366045276201912    0.271208417785849    0.140886643657514  0.0000
  O2     O2        0.637413592319214    0.529585293129485    0.057253095989079  0.0000
  O2     O2        0.873382930094546    0.475588793914546    0.062871000350146  0.0000
  O3     O3        0.376570584701333    0.575876791817866    0.979016256882696  0.0000
  O2     O2        0.127725179758399    0.486946647012714    0.968964006895408  0.0000
  O2     O2        0.743850795671029    0.281022437921532    0.070921253798196  0.0000
  O2     O2        0.766801329422724    0.721556640756498    0.070209212257478  0.0000
  O3     O3        0.260054187754320    0.312821626250638    0.934189168560879  0.0000
  O2     O2        0.239960193737883    0.717690183277617    0.963757928417318  0.0000
