data_c00880.vasp
_audit_creation_method             Generated by GULP
_audit_author_name                 Salvador R. G. Balestra
_symmetry_space_group_name_H-M     'P 1             '
_symmetry_Int_Tables_number        1

loop_
_symmetry_equiv_pos_site_id
_symmetry_equiv_pos_as_xyz
_cell_length_a                       16.8919
_cell_length_b                        7.5596
_cell_length_c                       10.4771
_cell_angle_alpha                   90.1484
_cell_angle_beta                    89.6810
_cell_angle_gamma                   89.7743

loop_
_atom_site_label
_atom_site_type_symbol
_atom_site_fract_x
_atom_site_fract_y
_atom_site_fract_z
_atom_site_charge
  Ge     Ge        0.556730000000016    0.000000000000000    0.122129999999970  0.0000
  Ge     Ge        0.056631377913274    0.011548963404221    0.859669312871212  0.0000
  Ge     Ge        0.672725029618553    0.276445003521093    0.004456534623012  0.0000
  Ge     Ge        0.359104130603374    0.677521652427031    0.971093402970772  0.0000
  Si     Si        0.040808869966902    0.024406232934774    0.345996222976007  0.0000
  Si     Si        0.442509865425013    0.003915339381800    0.370525269047854  0.0000
  Si     Si        0.946468558007021    0.024701006579267    0.607351192367178  0.0000
  Si     Si        0.543994604161925    0.012839366707069    0.623127054907803  0.0000
  Si     Si        0.943277368759143    0.013247127669361    0.094209510158503  0.0000
  Si     Si        0.450018785998467    0.003492992198293    0.879041912764952  0.0000
  Si     Si        0.144675629374699    0.330079376389387    0.259759706219937  0.0000
  Si     Si        0.343713985818195    0.696672077459950    0.272829249908501  0.0000
  Si     Si        0.844730280472569    0.337536891011759    0.692727588392425  0.0000
  Si     Si        0.646239009747237    0.703523932926014    0.713598984428375  0.0000
  Si     Si        0.828524223441208    0.741314762112843    0.700710943755658  0.0000
  Si     Si        0.664091053545681    0.292850059121711    0.703352084924243  0.0000
  Si     Si        0.162069653047831    0.737657175029025    0.254089153448221  0.0000
  Si     Si        0.326250971495227    0.289714283818871    0.273987714662902  0.0000
  Si     Si        0.830550605661278    0.733043399298655    0.997974394756356  0.0000
  Si     Si        0.331732502303133    0.274024315303518    0.975821414102882  0.0000
  Si     Si        0.173366245723119    0.731126162824594    0.957143281039442  0.0000
  Si     Si        0.149005643344134    0.332185097292367    0.964711012247900  0.0000
  Si     Si        0.646075120764893    0.681988490618320    0.006740076323707  0.0000
  Si     Si        0.856054188810670    0.337963917224039    0.992364591160326  0.0000
  O2     O2        0.082481822613827    0.216715864739899    0.342260266772666  0.0000
  O2     O2        0.400681640656404    0.812461784417156    0.363081008272403  0.0000
  O2     O2        0.906901569580900    0.219886317978721    0.612248838469611  0.0000
  O2     O2        0.586041473756735    0.820063985495829    0.629997821464400  0.0000
  O2     O2        0.876342830906166    0.880064943058624    0.615212074226229  0.0000
  O2     O2        0.610296342188489    0.166483082457731    0.615089071637196  0.0000
  O2     O2        0.107879909406823    0.872992126008556    0.333639219353810  0.0000
  O2     O2        0.375364215383631    0.156411813316838    0.362392453467776  0.0000
  O2     O2        0.994923942297802    0.001835446058165    0.477623524740748  0.0000
  O2     O2        0.488255367593427    0.020203723411792    0.502060860706347  0.0000
  O2     O2        0.976018879376150    0.004926137777491    0.236136735271697  0.0000
  O3     O3        0.507486586158384    0.030454100938618    0.261593409304826  0.0000
  O3     O3        0.007284666299660    0.991413855468969    0.719991737889567  0.0000
  O2     O2        0.487690878942543    0.049158813655289    0.743589123389548  0.0000
  O1     O1        0.638436169734508    0.131995539540370    0.113675887407174  0.0000
  O2     O2        0.866354691962222    0.885853999242958    0.086603974966541  0.0000
  O2     O2        0.366900246150279    0.110508580529322    0.895818925267719  0.0000
  O3     O3        0.136122203300640    0.867452006568851    0.860502699269221  0.0000
  O3     O3        0.430560737753458    0.796637706403580    0.891429365826264  0.0000
  O3     O3        0.091600198854980    0.224949975970350    0.874611841254650  0.0000
  O3     O3        0.588847795669460    0.784217343819795    0.102508107879664  0.0000
  O2     O2        0.922512312979830    0.216863020578883    0.058702976736438  0.0000
  O3     O3        0.505041711718376    0.074101951546598    0.990991327668889  0.0000
  O3     O3        0.003957850713160    0.940083026075735    0.990550424760425  0.0000
  O2     O2        0.129267681582167    0.539375602471604    0.276867943383452  0.0000
  O2     O2        0.357672926500210    0.488401660366353    0.297879848449620  0.0000
  O2     O2        0.860598141281538    0.544637332892407    0.667586001880441  0.0000
  O2     O2        0.631540945837779    0.494420662824916    0.694590547594444  0.0000
  O2     O2        0.233026459486466    0.281177993619011    0.306969318468323  0.0000
  O2     O2        0.252462231744722    0.747446828313132    0.302458720838273  0.0000
  O2     O2        0.755073194089354    0.289260970708630    0.653616721463550  0.0000
  O2     O2        0.735294520831637    0.752679799991400    0.670285644501818  0.0000
  O2     O2        0.132910100639358    0.275895354502904    0.111971624566772  0.0000
  O3     O3        0.368472244210261    0.741701588753994    0.129191675736455  0.0000
  O2     O2        0.858301276654037    0.294616372789937    0.841282568155709  0.0000
  O2     O2        0.631356415344311    0.753518847830536    0.862022238165521  0.0000
  O2     O2        0.840594456830080    0.787887417332866    0.849717014852329  0.0000
  O3     O3        0.662595641370049    0.217337865277956    0.845614551321375  0.0000
  O2     O2        0.162887374618816    0.791192144141353    0.105406958632143  0.0000
  O2     O2        0.338714261658204    0.233997583989403    0.127079594661261  0.0000
  O3     O3        0.625712207205503    0.478821878103888    0.019499514452604  0.0000
  O2     O2        0.875038208096717    0.545040349260793    0.018574976135044  0.0000
  O3     O3        0.377741561154475    0.455054065411189    0.949195002556463  0.0000
  O2     O2        0.132470051195361    0.538998973998379    0.943339199485246  0.0000
  O3     O3        0.770945843925171    0.293801564787039    0.045893655106545  0.0000
  O2     O2        0.738913280649509    0.713221150267557    0.036074751199301  0.0000
  O2     O2        0.240866864067348    0.292112012228404    0.934078487742900  0.0000
  O3     O3        0.264989435064487    0.718507562067576    0.920700200863329  0.0000
