data_c00801.vasp
_audit_creation_method             Generated by GULP
_audit_author_name                 Salvador R. G. Balestra
_symmetry_space_group_name_H-M     'P 1             '
_symmetry_Int_Tables_number        1

loop_
_symmetry_equiv_pos_site_id
_symmetry_equiv_pos_as_xyz
_cell_length_a                       16.9475
_cell_length_b                        7.5988
_cell_length_c                       10.4097
_cell_angle_alpha                   89.7038
_cell_angle_beta                    90.5502
_cell_angle_gamma                   89.8419

loop_
_atom_site_label
_atom_site_type_symbol
_atom_site_fract_x
_atom_site_fract_y
_atom_site_fract_z
_atom_site_charge
  Ge     Ge        0.556730000000016    0.000000000000000    0.122129999999970  0.0000
  Ge     Ge        0.943467334636493    0.980864196810319    0.135304722707577  0.0000
  Ge     Ge        0.837693741802978    0.270100171444436    0.720765067127272  0.0000
  Ge     Ge        0.333544465777214    0.712944091839631    0.976057345944987  0.0000
  Si     Si        0.055599752790334    0.981252504539116    0.382349348715678  0.0000
  Si     Si        0.455469702706071    0.996945089595578    0.378763035713496  0.0000
  Si     Si        0.959271681520392    0.987833571373434    0.637912872380060  0.0000
  Si     Si        0.553526531619842    0.013329664433950    0.636399397917989  0.0000
  Si     Si        0.444937540847930    0.992812120840560    0.881342391687649  0.0000
  Si     Si        0.056262988692553    0.993136802995725    0.897022651041210  0.0000
  Si     Si        0.170647958004660    0.271141907960195    0.284300268947951  0.0000
  Si     Si        0.338750062341911    0.711364365553253    0.281231010978677  0.0000
  Si     Si        0.672399088446381    0.727120070471881    0.721134581100260  0.0000
  Si     Si        0.855236860356622    0.682975712158721    0.725748438736887  0.0000
  Si     Si        0.653364217701942    0.324356390781775    0.713471686231976  0.0000
  Si     Si        0.158061716500979    0.674419688515536    0.284015045632370  0.0000
  Si     Si        0.352316616781721    0.303013883542528    0.281427809962987  0.0000
  Si     Si        0.647545288909275    0.324122151423764    0.014143968069688  0.0000
  Si     Si        0.855688224270593    0.660453757899933    0.022187049165405  0.0000
  Si     Si        0.354165939578637    0.309486087201007    0.984165010984431  0.0000
  Si     Si        0.149090180082635    0.669247239589320    0.982185598094483  0.0000
  Si     Si        0.170123479022500    0.273630584564349    0.984854779195683  0.0000
  Si     Si        0.674136018714447    0.719985459744754    0.020246580804008  0.0000
  Si     Si        0.828239890807934    0.259164992742109    0.023259260019508  0.0000
  O2     O2        0.119935667463450    0.136044816116874    0.367422793310074  0.0000
  O2     O2        0.391904829451146    0.839654378431528    0.367749184143934  0.0000
  O3     O3        0.894222022212458    0.139323774474874    0.623651163507938  0.0000
  O2     O2        0.624005258262798    0.869117319445214    0.636615045253368  0.0000
  O2     O2        0.913645630098634    0.801837244689368    0.641829057580526  0.0000
  O2     O2        0.590907209879113    0.208748225874217    0.631533514598563  0.0000
  O2     O2        0.097327799240838    0.792406001749340    0.362673063096262  0.0000
  O2     O2        0.411919246771841    0.186289872177414    0.366535765876468  0.0000
  O2     O2        0.021924585865432    0.987541940179074    0.524794194797182  0.0000
  O2     O2        0.496088834369102    0.984092552644190    0.517085828213623  0.0000
  O3     O3        0.983149023548044    0.005481464865465    0.285583585638628  0.0000
  O3     O3        0.523272254360161    0.978308456896057    0.275275145828773  0.0000
  O2     O2        0.007608791554971    0.024058079345698    0.768123225917568  0.0000
  O2     O2        0.502389365427896    0.987502037831028    0.762790586148501  0.0000
  O3     O3        0.583864399816960    0.215340154981404    0.091540886097114  0.0000
  O3     O3        0.914489295953438    0.764554417315083    0.113907834377773  0.0000
  O2     O2        0.409382034591778    0.189063559701462    0.897017337352471  0.0000
  O2     O2        0.084552730293395    0.789455281265033    0.908461929079050  0.0000
  O3     O3        0.373917101377237    0.856410485222312    0.867863793207945  0.0000
  O2     O2        0.131703021065324    0.124361641958003    0.896594787900714  0.0000
  O3     O3        0.637920268972201    0.863450415575442    0.111211371077993  0.0000
  O3     O3        0.864092253046386    0.123204629629203    0.123712192569526  0.0000
  O3     O3        0.488973505735208    0.928952576150327    0.010847733511846  0.0000
  O3     O3        0.007107670331790    0.050549756683586    0.018959091198680  0.0000
  O2     O2        0.140953590092622    0.469287851308283    0.312517773969861  0.0000
  O2     O2        0.368716428542363    0.510154296565974    0.299897876993233  0.0000
  O3     O3        0.872490590405685    0.481415915773931    0.700866781747342  0.0000
  O2     O2        0.639234260721081    0.532594753435046    0.689482100712734  0.0000
  O2     O2        0.263029083669462    0.255976938423675    0.321213463213549  0.0000
  O2     O2        0.247455313314630    0.722557989936873    0.324372233702025  0.0000
  O3     O3        0.740253912742088    0.270952122708524    0.671354696029667  0.0000
  O2     O2        0.764958442763351    0.733991823055215    0.686955754848378  0.0000
  O2     O2        0.160109648665759    0.223798072231622    0.134687518444921  0.0000
  O3     O3        0.344387740204038    0.773641487110964    0.134933046356447  0.0000
  O3     O3        0.840808074312551    0.195766935761385    0.877621683398537  0.0000
  O2     O2        0.662645272335490    0.775072222047013    0.870768229770435  0.0000
  O2     O2        0.870743229856281    0.725891742975425    0.876179748190200  0.0000
  O2     O2        0.639855103044641    0.279534664556223    0.863174485640612  0.0000
  O2     O2        0.144767769022687    0.715113199565482    0.133480173896911  0.0000
  O2     O2        0.368017465498889    0.252851921944309    0.133175205594975  0.0000
  O2     O2        0.632498790868921    0.530435559636376    0.039931754493851  0.0000
  O2     O2        0.869381894384153    0.451477294924492    0.034041290243147  0.0000
  O3     O3        0.376959091919722    0.508562029886148    0.960148019770482  0.0000
  O2     O2        0.129227544176205    0.463559231632891    0.958440133624447  0.0000
  O2     O2        0.736044432217016    0.273317808853597    0.057512615343004  0.0000
  O2     O2        0.765962933435634    0.706107607988565    0.057812611842958  0.0000
  O2     O2        0.261966689714553    0.283983718607817    0.949683766246918  0.0000
  O3     O3        0.235475599388219    0.708505369081510    0.932844169877202  0.0000
