data_c00885.vasp
_audit_creation_method             Generated by GULP
_audit_author_name                 Salvador R. G. Balestra
_symmetry_space_group_name_H-M     'P 1             '
_symmetry_Int_Tables_number        1

loop_
_symmetry_equiv_pos_site_id
_symmetry_equiv_pos_as_xyz
_cell_length_a                       16.8539
_cell_length_b                        7.5687
_cell_length_c                       10.4817
_cell_angle_alpha                   89.8642
_cell_angle_beta                    89.7338
_cell_angle_gamma                   89.9455

loop_
_atom_site_label
_atom_site_type_symbol
_atom_site_fract_x
_atom_site_fract_y
_atom_site_fract_z
_atom_site_charge
  Ge     Ge        0.556730000000016    0.000000000000000    0.122129999999970  0.0000
  Ge     Ge        0.052079861482606    0.013084863654865    0.877655575321995  0.0000
  Ge     Ge        0.828523211034653    0.737119647957943    0.020851791904431  0.0000
  Ge     Ge        0.357533040533995    0.680183668392729    0.978319575855549  0.0000
  Si     Si        0.049009045151429    0.024198641834116    0.364467473795086  0.0000
  Si     Si        0.451593938488169    0.006288457145029    0.376157289147934  0.0000
  Si     Si        0.949487967015387    0.022814654695907    0.620145021672130  0.0000
  Si     Si        0.547589489605336    0.008249872247982    0.634880984455458  0.0000
  Si     Si        0.941627343755016    0.014301466735497    0.117734184835174  0.0000
  Si     Si        0.446141392846470    0.006884636770277    0.883536454223682  0.0000
  Si     Si        0.151502684850386    0.331588984958026    0.281818428371950  0.0000
  Si     Si        0.350888242438778    0.699237780348606    0.279277241389669  0.0000
  Si     Si        0.850092788465677    0.332762240586052    0.713715481711482  0.0000
  Si     Si        0.649227114415776    0.694527386142513    0.723338749656485  0.0000
  Si     Si        0.830734057131772    0.740557255889323    0.717492412454222  0.0000
  Si     Si        0.667213782594389    0.289277733664319    0.717659612428876  0.0000
  Si     Si        0.167810926370916    0.737803529363543    0.275622795039805  0.0000
  Si     Si        0.333393681032936    0.291699514782044    0.281107186114409  0.0000
  Si     Si        0.672587600300732    0.277295494896446    0.013024617796458  0.0000
  Si     Si        0.329927118163391    0.276755055743021    0.982931264469699  0.0000
  Si     Si        0.170529505581783    0.732235123999111    0.978514833499208  0.0000
  Si     Si        0.146843799704976    0.333031348152021    0.986168912232409  0.0000
  Si     Si        0.644020954463775    0.672236206929580    0.021821168675070  0.0000
  Si     Si        0.857131240174369    0.336523541214678    0.007988239361884  0.0000
  O2     O2        0.091618993648440    0.215620325173068    0.367844739429991  0.0000
  O2     O2        0.409931324337287    0.814665551262730    0.366057934229389  0.0000
  O2     O2        0.909366594852568    0.217647586261947    0.626633185192117  0.0000
  O2     O2        0.586726096413164    0.813731132305800    0.646091055670571  0.0000
  O2     O2        0.880927283647522    0.874229435900641    0.629768200067806  0.0000
  O2     O2        0.617196191623467    0.155319713196776    0.630777607639071  0.0000
  O2     O2        0.116358501075183    0.872265435542673    0.360313327613473  0.0000
  O2     O2        0.384739184427534    0.158817198682251    0.366520986087192  0.0000
  O2     O2        0.994196268657009    0.001284876309543    0.486840206264743  0.0000
  O2     O2        0.495375114060077    0.019488617560636    0.509783782297744  0.0000
  O2     O2        0.993220002647153    0.005047170099429    0.243133186404351  0.0000
  O3     O3        0.518304240874465    0.035650686904577    0.269883580301932  0.0000
  O3     O3        0.014131815889640    0.995329771523997    0.728216844924325  0.0000
  O2     O2        0.489061452015892    0.050885686301435    0.751503121790770  0.0000
  O3     O3        0.642162685964841    0.126271850768702    0.104692978960732  0.0000
  O3     O3        0.866062914962550    0.887836184464525    0.126616054798797  0.0000
  O2     O2        0.363954487597507    0.118149899093754    0.897194403575266  0.0000
  O3     O3        0.131851450321086    0.871096507108224    0.885516359914539  0.0000
  O3     O3        0.425079092785420    0.800699908319991    0.890576378507718  0.0000
  O3     O3        0.085065019392150    0.226222377345541    0.903660283907366  0.0000
  O3     O3        0.579515608685333    0.778652363751524    0.101708512463425  0.0000
  O2     O2        0.914469497268906    0.216433189332469    0.093340482454424  0.0000
  O3     O3        0.497200139485616    0.074251148392181    0.001622907438004  0.0000
  O3     O3        0.988154744339578    0.941327635108187    0.994570118292948  0.0000
  O2     O2        0.135650063138534    0.539666649950910    0.301806874295442  0.0000
  O2     O2        0.365732088725511    0.490546813746146    0.300856904371646  0.0000
  O2     O2        0.864047402892206    0.541817787762404    0.695543201702484  0.0000
  O2     O2        0.633750271978202    0.487503174177293    0.696580517818670  0.0000
  O2     O2        0.241292292127311    0.283954623307300    0.322744314265324  0.0000
  O2     O2        0.260098719212913    0.748074064362135    0.314796944514089  0.0000
  O2     O2        0.759762272205355    0.283613423440043    0.678061093277155  0.0000
  O2     O2        0.738042621041934    0.745933103838358    0.678745108358339  0.0000
  O2     O2        0.136301770347133    0.279165152011732    0.134965368979023  0.0000
  O3     O3        0.371943620590679    0.747157297570591    0.134574731145299  0.0000
  O2     O2        0.870546319531513    0.281348656071336    0.859793074140442  0.0000
  O2     O2        0.638543501576981    0.733245000515534    0.873371671264083  0.0000
  O3     O3        0.837639805014518    0.800903173800738    0.862933579685961  0.0000
  O2     O2        0.660112587469758    0.226682963100088    0.864398322954912  0.0000
  O2     O2        0.161951126596504    0.791064158423285    0.127017701277329  0.0000
  O2     O2        0.340321022738502    0.234773763000991    0.133669914328747  0.0000
  O2     O2        0.627242010338318    0.463340603239394    0.037470606524890  0.0000
  O3     O3        0.877911659011771    0.537151583480987    0.033107167751093  0.0000
  O3     O3        0.375216816487777    0.458683836744437    0.955026354184050  0.0000
  O2     O2        0.129588364575819    0.539883422710265    0.965449748259705  0.0000
  O2     O2        0.765138797403656    0.305787298982659    0.041864004557520  0.0000
  O3     O3        0.731503488353866    0.717953968014870    0.068630851994938  0.0000
  O2     O2        0.237640790088218    0.292473640205807    0.946861694318491  0.0000
  O3     O3        0.261389618164694    0.720089664470866    0.937442700334290  0.0000
