data_c00857.vasp
_audit_creation_method             Generated by GULP
_audit_author_name                 Salvador R. G. Balestra
_symmetry_space_group_name_H-M     'P 1             '
_symmetry_Int_Tables_number        1

loop_
_symmetry_equiv_pos_site_id
_symmetry_equiv_pos_as_xyz
_cell_length_a                       16.9720
_cell_length_b                        7.5871
_cell_length_c                       10.4497
_cell_angle_alpha                   90.7506
_cell_angle_beta                    89.3549
_cell_angle_gamma                   89.7427

loop_
_atom_site_label
_atom_site_type_symbol
_atom_site_fract_x
_atom_site_fract_y
_atom_site_fract_z
_atom_site_charge
  Ge     Ge        0.556730000000016    0.000000000000000    0.122129999999970  0.0000
  Ge     Ge        0.061747518656014    0.013166175832266    0.874797651810799  0.0000
  Ge     Ge        0.143083438820647    0.341094395855235    0.284866735273689  0.0000
  Ge     Ge        0.333056160472401    0.291729353650089    0.296176113831097  0.0000
  Si     Si        0.042535440906136    0.028889723908412    0.367024585463615  0.0000
  Si     Si        0.452243891243189    0.009097888804355    0.381669465902801  0.0000
  Si     Si        0.949935363438919    0.004497043277027    0.626840799542302  0.0000
  Si     Si        0.549934192726623    0.990036557307203    0.636182383798546  0.0000
  Si     Si        0.946261393884676    0.005728388828655    0.113255315169756  0.0000
  Si     Si        0.445628885114542    0.998457865193467    0.882326797210319  0.0000
  Si     Si        0.349293793850261    0.702985419472910    0.285933461134439  0.0000
  Si     Si        0.848275370149477    0.315844172723607    0.717339091121599  0.0000
  Si     Si        0.651719046284860    0.684744316277143    0.732387656116397  0.0000
  Si     Si        0.833171061071725    0.719710873709488    0.722823677154851  0.0000
  Si     Si        0.667080216549060    0.277926404450182    0.729451138926981  0.0000
  Si     Si        0.166582982777945    0.753757558722896    0.273120660282401  0.0000
  Si     Si        0.674208628882145    0.276816962641028    0.026428705100005  0.0000
  Si     Si        0.833507324861172    0.721819019017900    0.021429809158862  0.0000
  Si     Si        0.334793519052638    0.280936268059822    0.991733408128315  0.0000
  Si     Si        0.176279658883583    0.734199751400809    0.976324241796283  0.0000
  Si     Si        0.357425971464468    0.680683884538243    0.988735594718291  0.0000
  Si     Si        0.151139599270239    0.334587359367585    0.982833580913377  0.0000
  Si     Si        0.651330006587157    0.676495762049528    0.029129535289671  0.0000
  Si     Si        0.855592162437308    0.324810072934285    0.015223805173670  0.0000
  O3     O3        0.072859348053128    0.227634577773463    0.371665676584847  0.0000
  O2     O2        0.405792222935039    0.824954076723029    0.370023316413612  0.0000
  O2     O2        0.907873604829588    0.196395805729368    0.632988109823010  0.0000
  O2     O2        0.592389932987533    0.800535339767148    0.649484272809549  0.0000
  O2     O2        0.883209673524296    0.854765523843035    0.639150287419626  0.0000
  O2     O2        0.614202464776672    0.145317336565947    0.647152725328794  0.0000
  O2     O2        0.120703424687413    0.906133201666751    0.352013986363865  0.0000
  O3     O3        0.387885355447069    0.162335195494717    0.396052011416153  0.0000
  O2     O2        0.994076708343133    0.978990640282484    0.492600584402586  0.0000
  O2     O2        0.512182063873323    0.999298233090818    0.497807329278959  0.0000
  O2     O2        0.984215241733550    0.992613065087849    0.250596893083762  0.0000
  O3     O3        0.502944341773296    0.048111183322525    0.255319914999981  0.0000
  O3     O3        0.015606665116523    0.984409670605806    0.732745568502362  0.0000
  O2     O2        0.480161041300407    0.012872358978703    0.739867271480300  0.0000
  O3     O3        0.637440193671682    0.139311297304607    0.120388097907086  0.0000
  O2     O2        0.873373039540725    0.869612883781604    0.108949964122584  0.0000
  O2     O2        0.372799928833724    0.135841504102828    0.896155645549923  0.0000
  O3     O3        0.140942386167845    0.867971531481926    0.878057934776929  0.0000
  O2     O2        0.417950690960522    0.796633411767335    0.905996574057491  0.0000
  O3     O3        0.096568197702578    0.226022634431608    0.887469315554370  0.0000
  O3     O3        0.592139101566239    0.785639408437208    0.118381179470634  0.0000
  O2     O2        0.917053062673353    0.206939281375045    0.092218738319519  0.0000
  O3     O3        0.508371232737585    0.056881188350015    0.985567198020315  0.0000
  O3     O3        0.005099542503912    0.946660915215330    0.001803808430462  0.0000
  O3     O3        0.129028077420020    0.565690571600198    0.301448030841639  0.0000
  O3     O3        0.366673722106681    0.504088793489835    0.318020546159933  0.0000
  O2     O2        0.862381243629176    0.521381829239873    0.688594371924980  0.0000
  O2     O2        0.637312114346926    0.477547319665983    0.706354794342493  0.0000
  O1     O1        0.235406842302164    0.286184052449513    0.335052853306648  0.0000
  O2     O2        0.257919818191201    0.751343501171497    0.315707466713239  0.0000
  O2     O2        0.758555272460018    0.262713259360539    0.686035168054662  0.0000
  O2     O2        0.740737613387205    0.736102479393490    0.692148161532604  0.0000
  O3     O3        0.130071772265506    0.279090703977313    0.126645046932854  0.0000
  O2     O2        0.369257188316585    0.738758559546248    0.136426448606582  0.0000
  O2     O2        0.868675247453838    0.279260022837732    0.865103057552584  0.0000
  O2     O2        0.635600246027143    0.730021217900192    0.881670689074887  0.0000
  O2     O2        0.845686309183903    0.766481767169470    0.871945909607284  0.0000
  O2     O2        0.660627165167536    0.224846247042785    0.877578282261318  0.0000
  O2     O2        0.163364147511784    0.800392088983753    0.122953233694827  0.0000
  O3     O3        0.345119037472716    0.225230437351436    0.137837356907450  0.0000
  O2     O2        0.636283021557782    0.470400040644302    0.050643356745994  0.0000
  O2     O2        0.872629022314557    0.530038104049810    0.045699348497300  0.0000
  O2     O2        0.375669149530341    0.472593590337050    0.971206889121469  0.0000
  O2     O2        0.136233407413641    0.542010545987027    0.962502840182984  0.0000
  O2     O2        0.766940550660037    0.280920318303006    0.055431940593056  0.0000
  O2     O2        0.741886649041669    0.721304360165586    0.059782291259299  0.0000
  O2     O2        0.243115839522324    0.291637060215000    0.958284305354633  0.0000
  O2     O2        0.269071310818312    0.719084409335831    0.945292453138088  0.0000
