data_c00810.vasp
_audit_creation_method             Generated by GULP
_audit_author_name                 Salvador R. G. Balestra
_symmetry_space_group_name_H-M     'P 1             '
_symmetry_Int_Tables_number        1

loop_
_symmetry_equiv_pos_site_id
_symmetry_equiv_pos_as_xyz
_cell_length_a                       16.8079
_cell_length_b                        7.5523
_cell_length_c                       10.5063
_cell_angle_alpha                   89.6705
_cell_angle_beta                    89.6575
_cell_angle_gamma                   90.8990

loop_
_atom_site_label
_atom_site_type_symbol
_atom_site_fract_x
_atom_site_fract_y
_atom_site_fract_z
_atom_site_charge
  Ge     Ge        0.556730000000016    0.000000000000000    0.122129999999970  0.0000
  Ge     Ge        0.946419318554398    0.041029041452310    0.106841790607290  0.0000
  Ge     Ge        0.678848059012604    0.267782123642651    0.005316898025906  0.0000
  Ge     Ge        0.640504842082672    0.674070299877396    0.012890902613832  0.0000
  Si     Si        0.047464945256987    0.037455981963514    0.362970685534953  0.0000
  Si     Si        0.450854727155859    0.032867552661852    0.371398059812147  0.0000
  Si     Si        0.955216638057432    0.052061201820259    0.625529108398131  0.0000
  Si     Si        0.550942172490483    0.024711612325030    0.624737851160787  0.0000
  Si     Si        0.451672895998348    0.041943145105489    0.879145075110366  0.0000
  Si     Si        0.061185362661022    0.030531099838198    0.871553612320528  0.0000
  Si     Si        0.151782064717545    0.347206594345223    0.269000753851021  0.0000
  Si     Si        0.349173757279572    0.724181700788599    0.272690404488291  0.0000
  Si     Si        0.853750479203887    0.362739399872292    0.705939178051898  0.0000
  Si     Si        0.650363166291062    0.715047586033278    0.714979418983417  0.0000
  Si     Si        0.832300898831203    0.765642709435352    0.713254486172804  0.0000
  Si     Si        0.673142041075413    0.305257257286495    0.704673444938446  0.0000
  Si     Si        0.165609023227542    0.755305773452177    0.266046230242032  0.0000
  Si     Si        0.335240270196302    0.315971438061188    0.273012756432962  0.0000
  Si     Si        0.827106717452161    0.758030410325456    0.010240145996493  0.0000
  Si     Si        0.337727236804151    0.318407703867601    0.977147250034353  0.0000
  Si     Si        0.171877545612870    0.752952560219795    0.969990163093440  0.0000
  Si     Si        0.356436956928857    0.720876579918472    0.978211520782795  0.0000
  Si     Si        0.153263443556372    0.350895906720853    0.973915547647621  0.0000
  Si     Si        0.861113196590056    0.367883858755792    0.004175421448652  0.0000
  O2     O2        0.090420864315984    0.230009079947588    0.351748116806202  0.0000
  O2     O2        0.408177682454322    0.840532194905477    0.358193128377268  0.0000
  O2     O2        0.918020600527165    0.248515598618741    0.628069137152882  0.0000
  O2     O2        0.590290225226647    0.830325988302913    0.628734172041462  0.0000
  O2     O2        0.883026917062769    0.909441920073286    0.633231082618218  0.0000
  O2     O2        0.619903341094159    0.176376578319100    0.615743749963798  0.0000
  O2     O2        0.114066319104667    0.886053848786370    0.350906416391784  0.0000
  O2     O2        0.384647438780496    0.185443523156728    0.361951140147541  0.0000
  O2     O2        0.004441390235069    0.023619376249856    0.497855337520957  0.0000
  O2     O2        0.494208982882494    0.040363438895172    0.504794175949912  0.0000
  O3     O3        0.981789121442938    0.009825761668966    0.256809648204347  0.0000
  O3     O3        0.516224883616260    0.063759915957298    0.263225135544553  0.0000
  O2     O2        0.016401606523838    0.021395945567274    0.739224727384224  0.0000
  O2     O2        0.494820899756206    0.059992024649823    0.745132454870606  0.0000
  O1     O1        0.648955911082284    0.098252381525929    0.100639806313768  0.0000
  O3     O3        0.860832538707922    0.912743544993757    0.096514458218504  0.0000
  O2     O2        0.379248607705005    0.180503084846031    0.884668019238471  0.0000
  O2     O2        0.133748635138511    0.891321350325091    0.873076899596488  0.0000
  O2     O2        0.417546542043886    0.840402333291866    0.896333190144891  0.0000
  O2     O2        0.095387396383888    0.230596087913205    0.889076520106241  0.0000
  O1     O1        0.572454559169001    0.778995986445804    0.106967121617560  0.0000
  O3     O3        0.927505004499746    0.261672519921113    0.078436614897877  0.0000
  O3     O3        0.508629032841926    0.093674304924647    0.992956604111402  0.0000
  O3     O3        0.007227517945291    0.965702655828994    0.987800289824576  0.0000
  O2     O2        0.137276944105930    0.553858413574641    0.294608621970334  0.0000
  O2     O2        0.363014953572682    0.517541659075559    0.300356992090829  0.0000
  O2     O2        0.869487363357133    0.572673980317218    0.686289844775812  0.0000
  O2     O2        0.637032759012595    0.503038660710280    0.700163576049785  0.0000
  O2     O2        0.241687614998469    0.295684617595744    0.304496236253466  0.0000
  O2     O2        0.258399288966328    0.776088504017815    0.301649121667871  0.0000
  O2     O2        0.765050393965950    0.313845828376098    0.656696828913490  0.0000
  O2     O2        0.740280076243788    0.765930440930610    0.670246762073561  0.0000
  O2     O2        0.134761897083067    0.303183173236087    0.121327130907247  0.0000
  O2     O2        0.371861538760041    0.769615549337645    0.126046227640898  0.0000
  O2     O2        0.862656658347644    0.314348232078943    0.854456774749801  0.0000
  O3     O3        0.632310372239517    0.762021720493724    0.859771409492557  0.0000
  O2     O2        0.833001481325165    0.816878042289145    0.861625356350910  0.0000
  O3     O3        0.673189009905661    0.222228565699879    0.844257558903911  0.0000
  O2     O2        0.154936684849755    0.803534055145504    0.117212901648165  0.0000
  O2     O2        0.350191223664210    0.266745164534778    0.125408330672019  0.0000
  O1     O1        0.622442440598411    0.454369988445461    0.026282020390258  0.0000
  O2     O2        0.877614821094992    0.576971367328721    0.023687135438175  0.0000
  O2     O2        0.374332661562527    0.515240327170879    0.952911139391550  0.0000
  O2     O2        0.136559398414029    0.556243502453130    0.944534456232788  0.0000
  O3     O3        0.774489598950036    0.314745121892756    0.054491978513586  0.0000
  O3     O3        0.738181559981078    0.717076693072262    0.054338069366263  0.0000
  O2     O2        0.244894067162879    0.311933412459951    0.943728190649774  0.0000
  O2     O2        0.265918321040829    0.760053734631462    0.943020925276081  0.0000
