data_c00858.vasp
_audit_creation_method             Generated by GULP
_audit_author_name                 Salvador R. G. Balestra
_symmetry_space_group_name_H-M     'P 1             '
_symmetry_Int_Tables_number        1

loop_
_symmetry_equiv_pos_site_id
_symmetry_equiv_pos_as_xyz
_cell_length_a                       16.9308
_cell_length_b                        7.5667
_cell_length_c                       10.4291
_cell_angle_alpha                   91.4086
_cell_angle_beta                    90.2330
_cell_angle_gamma                   89.6183

loop_
_atom_site_label
_atom_site_type_symbol
_atom_site_fract_x
_atom_site_fract_y
_atom_site_fract_z
_atom_site_charge
  Ge     Ge        0.556730000000016    0.000000000000000    0.122129999999970  0.0000
  Ge     Ge        0.059597172303032    0.953994455236490    0.854536368825779  0.0000
  Ge     Ge        0.165560065154835    0.244864783440434    0.270026542359843  0.0000
  Ge     Ge        0.647082610484897    0.326949229740981    0.022649551669427  0.0000
  Si     Si        0.043845622449055    0.970075954975009    0.354305030352800  0.0000
  Si     Si        0.450778823169487    0.982513243296495    0.369622434685393  0.0000
  Si     Si        0.947159294616586    0.951410841191182    0.608547721206477  0.0000
  Si     Si        0.546469536126024    0.973981867206631    0.629017962026384  0.0000
  Si     Si        0.947993625053439    0.986263835284874    0.095106550789880  0.0000
  Si     Si        0.445966177702207    0.963079785487647    0.881164770679836  0.0000
  Si     Si        0.331282992932142    0.698506926388609    0.271706726978274  0.0000
  Si     Si        0.829560065763606    0.244764235990998    0.714970556283935  0.0000
  Si     Si        0.665782845510114    0.692594885422470    0.709858621976677  0.0000
  Si     Si        0.847682540039112    0.648467055564133    0.703155532496265  0.0000
  Si     Si        0.649132449060252    0.284646550520068    0.718682767934111  0.0000
  Si     Si        0.148958045763147    0.661264608114002    0.266338251348109  0.0000
  Si     Si        0.351367687400268    0.292788598028038    0.276669706682933  0.0000
  Si     Si        0.856365018101414    0.662769170966202    0.999949758305603  0.0000
  Si     Si        0.355487152932928    0.288179164966501    0.977695360609026  0.0000
  Si     Si        0.150140581065442    0.636992144464845    0.969591184277533  0.0000
  Si     Si        0.331963749688114    0.685367628587248    0.971908267277996  0.0000
  Si     Si        0.173163170081240    0.232249431727277    0.968584852402661  0.0000
  Si     Si        0.673540400807707    0.728949702301898    0.007427936710816  0.0000
  Si     Si        0.831697731172435    0.269768680934257    0.016165985463746  0.0000
  O3     O3        0.110090889073072    0.118894674543987    0.370087572961178  0.0000
  O2     O2        0.380026939095840    0.841391461441515    0.354618760611037  0.0000
  O2     O2        0.881527637881905    0.101585544966732    0.637910931086585  0.0000
  O2     O2        0.613677551770398    0.820514897494844    0.621581392348284  0.0000
  O2     O2        0.906281657002669    0.759087706020280    0.615410278662132  0.0000
  O2     O2        0.588047052207030    0.165317700178788    0.635935193026088  0.0000
  O2     O2        0.088703717326607    0.781114884452510    0.349503245162814  0.0000
  O2     O2        0.415415992376013    0.180638995019932    0.356006191006731  0.0000
  O2     O2        0.979986887215864    0.974581197405746    0.466420554362099  0.0000
  O2     O2        0.490533549480693    0.962893464236742    0.506717698144392  0.0000
  O2     O2        0.998532988716308    0.009174540585398    0.222737875879527  0.0000
  O3     O3        0.518255491716043    0.944716922387177    0.266301847314858  0.0000
  O3     O3        0.020660889290985    0.967150555885045    0.703895401302957  0.0000
  O2     O2        0.490415185985621    0.940094112813686    0.748416204397768  0.0000
  O1     O1        0.580148476702074    0.218347142756530    0.113366712954680  0.0000
  O2     O2        0.915168223630106    0.785888652835117    0.082589998985721  0.0000
  O2     O2        0.416259507866694    0.166897572492085    0.896758384928225  0.0000
  O3     O3        0.090851405465657    0.739331287612233    0.879269022444314  0.0000
  O2     O2        0.372317617105814    0.827875903352879    0.882750632011422  0.0000
  O3     O3        0.138735814596259    0.097532937203716    0.865037820979030  0.0000
  O3     O3        0.646306660156167    0.890377375733490    0.095029152245580  0.0000
  O2     O2        0.876202496601013    0.127145156899523    0.101759860222831  0.0000
  O3     O3        0.499943371947024    0.913013143608589    0.999378714136516  0.0000
  O3     O3        0.996866641238401    0.033559529145657    0.970862046129424  0.0000
  O3     O3        0.132778769213293    0.459482133504201    0.291243140678499  0.0000
  O2     O2        0.362843642321486    0.502325588353795    0.303301532975284  0.0000
  O2     O2        0.862144447027970    0.439152379487732    0.682245654022406  0.0000
  O2     O2        0.634026697991011    0.492488827542336    0.694637684748237  0.0000
  O3     O3        0.264166039096859    0.236847740895173    0.313332212489777  0.0000
  O2     O2        0.238806739471721    0.712723610233980    0.306679942186730  0.0000
  O2     O2        0.737907500699699    0.231759678884012    0.673636935978075  0.0000
  O2     O2        0.757454180819364    0.697595619846268    0.668138165290242  0.0000
  O3     O3        0.158488300604088    0.169969459049967    0.112866378442044  0.0000
  O2     O2        0.341717425556335    0.739526946239221    0.121789318215362  0.0000
  O2     O2        0.833747287123042    0.209587631586675    0.866150921620993  0.0000
  O2     O2        0.659830478547906    0.763256496970957    0.856120572575608  0.0000
  O2     O2        0.869546915126712    0.703777255933336    0.849843720043939  0.0000
  O3     O3        0.635689371737251    0.246799739254877    0.866507595597521  0.0000
  O2     O2        0.135790193996017    0.703410877288979    0.116281694895300  0.0000
  O2     O2        0.370063266185284    0.247923835824845    0.127255282147597  0.0000
  O3     O3        0.628190875721581    0.549476561767561    0.039623122754466  0.0000
  O2     O2        0.876091663233324    0.459319099531570    0.029467555667019  0.0000
  O2     O2        0.372458481239444    0.492642381369215    0.948389193502897  0.0000
  O2     O2        0.134887848640577    0.427986674662586    0.956762884992210  0.0000
  O3     O3        0.743743968921992    0.285153573459257    0.066839666447766  0.0000
  O2     O2        0.766056507488998    0.699034786547512    0.035297478798248  0.0000
  O2     O2        0.266347751082681    0.242433356957608    0.941431681185533  0.0000
  O2     O2        0.240365988532230    0.679535816532294    0.932313529264626  0.0000
