data_c00889.vasp
_audit_creation_method             Generated by GULP
_audit_author_name                 Salvador R. G. Balestra
_symmetry_space_group_name_H-M     'P 1             '
_symmetry_Int_Tables_number        1

loop_
_symmetry_equiv_pos_site_id
_symmetry_equiv_pos_as_xyz
_cell_length_a                       17.1460
_cell_length_b                        7.6044
_cell_length_c                       10.2836
_cell_angle_alpha                   90.9552
_cell_angle_beta                    90.2321
_cell_angle_gamma                   89.3265

loop_
_atom_site_label
_atom_site_type_symbol
_atom_site_fract_x
_atom_site_fract_y
_atom_site_fract_z
_atom_site_charge
  Ge     Ge        0.556730000000016    0.000000000000000    0.122129999999970  0.0000
  Ge     Ge        0.167071105628206    0.262126273742466    0.297031963536644  0.0000
  Ge     Ge        0.334487100938477    0.715256422685069    0.298645167112792  0.0000
  Ge     Ge        0.848567109902053    0.653165406522275    0.725543752228796  0.0000
  Si     Si        0.046788474489102    0.983838565011263    0.382601788332422  0.0000
  Si     Si        0.454685247700707    0.995221662527690    0.382110892257717  0.0000
  Si     Si        0.950985389956333    0.957659083176454    0.639568691662995  0.0000
  Si     Si        0.549110313216091    0.987682683556906    0.641934866892617  0.0000
  Si     Si        0.946925153445531    0.985233086352524    0.125496344086702  0.0000
  Si     Si        0.441953122576518    0.982134618140387    0.880836569156855  0.0000
  Si     Si        0.058370943941302    0.977995242272077    0.886634500062983  0.0000
  Si     Si        0.831883153425131    0.245050141374976    0.739810314979823  0.0000
  Si     Si        0.666255810437692    0.695777711725929    0.734017570894459  0.0000
  Si     Si        0.653197864639671    0.289938717561024    0.746119933186229  0.0000
  Si     Si        0.152207539001060    0.677304688011153    0.298310321191942  0.0000
  Si     Si        0.349534148349907    0.299037428225533    0.298058856278065  0.0000
  Si     Si        0.653719697260383    0.317840362071675    0.048387424522929  0.0000
  Si     Si        0.855355038871600    0.666309636993428    0.035782018371267  0.0000
  Si     Si        0.348394044511539    0.299586511741468    0.993506049433960  0.0000
  Si     Si        0.152790375169779    0.664937844147120    0.993475601886903  0.0000
  Si     Si        0.334244059504119    0.701288540379067    0.990130390927867  0.0000
  Si     Si        0.166900362658710    0.264009847248333    0.988242942087622  0.0000
  Si     Si        0.675736792624122    0.714518858393590    0.037790712394588  0.0000
  Si     Si        0.832850849997323    0.271672745119557    0.045437479517926  0.0000
  O3     O3        0.111923510004911    0.132003823779558    0.393821103068775  0.0000
  O3     O3        0.389005157559503    0.849022917218186    0.397992379487443  0.0000
  O2     O2        0.877924743796377    0.088412894939069    0.667243841673985  0.0000
  O2     O2        0.607757216153198    0.822233837275065    0.656064182801249  0.0000
  O3     O3        0.915924705287126    0.764638232867873    0.636011090745392  0.0000
  O2     O2        0.592916280467900    0.170779606827395    0.666552644074229  0.0000
  O2     O2        0.088966594663223    0.792852699279368    0.378373011635111  0.0000
  O2     O2        0.413614981577338    0.187712442537027    0.377512374187488  0.0000
  O2     O2        0.987808605610795    0.999704212120457    0.501497071742925  0.0000
  O2     O2        0.518488374767838    0.989543797522807    0.495218541559990  0.0000
  O2     O2        0.998820186223822    0.016274189097486    0.251354366719987  0.0000
  O3     O3        0.497337318871044    0.952153594787600    0.247550813039567  0.0000
  O2     O2        0.018933333287960    0.981544511787320    0.746209134237601  0.0000
  O2     O2        0.474179926864406    0.973058352994579    0.734586194336358  0.0000
  O3     O3        0.592869677655918    0.211829380334149    0.131921262462511  0.0000
  O2     O2        0.912958794490240    0.787872978492842    0.121854084653602  0.0000
  O2     O2        0.405903734516474    0.176402034282460    0.909489042981027  0.0000
  O2     O2        0.096101001799882    0.785083869917774    0.907499615329217  0.0000
  O2     O2        0.375891545477277    0.834011409868163    0.893606859770553  0.0000
  O2     O2        0.124738086379564    0.126822111171617    0.891396613108127  0.0000
  O3     O3        0.636988777227833    0.860231980914947    0.126973545447398  0.0000
  O2     O2        0.876591113631159    0.127719705030803    0.131713898971610  0.0000
  O3     O3        0.511823292807329    0.944429657621272    0.978054508768203  0.0000
  O2     O2        0.995771919335644    0.024166988991081    0.996949252119135  0.0000
  O3     O3        0.150585680716304    0.478713842518266    0.342964979799143  0.0000
  O3     O3        0.351381912506992    0.499783288173943    0.341989275276639  0.0000
  O3     O3        0.865006886103474    0.431234532860465    0.699795269781877  0.0000
  O2     O2        0.637024835151905    0.494820614461083    0.717313785103403  0.0000
  O3     O3        0.264969755943576    0.217269922321348    0.319394173881162  0.0000
  O3     O3        0.236758889014552    0.760536837696361    0.320350396373407  0.0000
  O2     O2        0.740494545696035    0.236880994936410    0.701130157467606  0.0000
  O3     O3        0.753811354267354    0.706194236324495    0.682074634262802  0.0000
  O3     O3        0.144340307711027    0.225201816317952    0.135376582756384  0.0000
  O3     O3        0.357717676412551    0.746833837603352    0.137254502845576  0.0000
  O2     O2        0.838739535660979    0.218837427014872    0.894147826334210  0.0000
  O2     O2        0.667082596339753    0.756258665917699    0.884880088606025  0.0000
  O3     O3        0.868070586691626    0.707816361660924    0.885787545683764  0.0000
  O2     O2        0.641847261281582    0.253232656947726    0.898623241576519  0.0000
  O2     O2        0.131405513968343    0.688114290788440    0.144673558357287  0.0000
  O2     O2        0.370929274289336    0.279546197856787    0.144605637638975  0.0000
  O2     O2        0.636662458036126    0.525256132589531    0.064023480872044  0.0000
  O2     O2        0.873196069086684    0.461701066750599    0.066367510215682  0.0000
  O2     O2        0.360111545117156    0.501210895583614    0.953072288774662  0.0000
  O2     O2        0.141105523020269    0.462210004047793    0.950463117586434  0.0000
  O2     O2        0.743040809502619    0.277630202392229    0.090160839208865  0.0000
  O2     O2        0.766591886765196    0.707813020556651    0.074619412316148  0.0000
  O2     O2        0.259689896339571    0.241493815816085    0.970885384028933  0.0000
  O2     O2        0.241498373842621    0.722561646541789    0.972407834565644  0.0000
