data_c00870.vasp
_audit_creation_method             Generated by GULP
_audit_author_name                 Salvador R. G. Balestra
_symmetry_space_group_name_H-M     'P 1             '
_symmetry_Int_Tables_number        1

loop_
_symmetry_equiv_pos_site_id
_symmetry_equiv_pos_as_xyz
_cell_length_a                       16.8461
_cell_length_b                        7.5677
_cell_length_c                       10.4999
_cell_angle_alpha                   88.6712
_cell_angle_beta                    90.1518
_cell_angle_gamma                   89.8709

loop_
_atom_site_label
_atom_site_type_symbol
_atom_site_fract_x
_atom_site_fract_y
_atom_site_fract_z
_atom_site_charge
  Ge     Ge        0.556730000000016    0.000000000000000    0.122129999999970  0.0000
  Ge     Ge        0.054393803756619    0.034793863930366    0.884236283561266  0.0000
  Ge     Ge        0.354368484381171    0.687156029552746    0.293011516523986  0.0000
  Ge     Ge        0.827929439329363    0.739764336010709    0.024590537133443  0.0000
  Si     Si        0.048224414759679    0.018798037637490    0.371150425204025  0.0000
  Si     Si        0.456133161785845    0.995628532160043    0.379343420723657  0.0000
  Si     Si        0.950850582176373    0.031319144868994    0.627859987980596  0.0000
  Si     Si        0.547925464337812    0.016450853186686    0.638802303530188  0.0000
  Si     Si        0.942860417663481    0.014851371519207    0.122843506245650  0.0000
  Si     Si        0.442907113993691    0.028369883159006    0.886006658721921  0.0000
  Si     Si        0.151472585008283    0.327361528329617    0.279098587557361  0.0000
  Si     Si        0.851217475766107    0.339071498552700    0.720642968144438  0.0000
  Si     Si        0.650190011151327    0.700445576682334    0.724423602937965  0.0000
  Si     Si        0.831274396376023    0.747134031669279    0.721910435072139  0.0000
  Si     Si        0.668281840859094    0.295680829271034    0.722466926558011  0.0000
  Si     Si        0.167014989955501    0.734147557154543    0.290562675009367  0.0000
  Si     Si        0.333890128075474    0.276310146771437    0.276918084098773  0.0000
  Si     Si        0.673383606911956    0.279721780361622    0.017639971194953  0.0000
  Si     Si        0.329867617832972    0.306618462786407    0.979076350419588  0.0000
  Si     Si        0.171733573219515    0.755620039093212    0.994707255320267  0.0000
  Si     Si        0.356688716297202    0.703771893937893    0.992722158363816  0.0000
  Si     Si        0.146817048249151    0.356526605224440    0.983668000723421  0.0000
  Si     Si        0.643960355952664    0.674049546057475    0.023206131368048  0.0000
  Si     Si        0.857965079408161    0.339649870132871    0.014439513641977  0.0000
  O2     O2        0.092790351169937    0.206891820866187    0.363607789217045  0.0000
  O3     O3        0.422674984279171    0.798183948031483    0.383210179460824  0.0000
  O2     O2        0.910875497019753    0.226269377320909    0.635038118911801  0.0000
  O2     O2        0.587137533294388    0.821179564609978    0.646647347887081  0.0000
  O2     O2        0.882406408492794    0.882713324029232    0.636184150325487  0.0000
  O2     O2        0.617749848257026    0.162416105201053    0.637955866792189  0.0000
  O2     O2        0.112599370239376    0.859976588519174    0.375781427203672  0.0000
  O2     O2        0.379299986290880    0.120025171689290    0.352059744779154  0.0000
  O2     O2        0.994775733527203    0.012446613139069    0.495139252178210  0.0000
  O2     O2        0.497364938068350    0.041250124610479    0.511471499473254  0.0000
  O2     O2        0.990939209034208    0.994488719519364    0.252029348560526  0.0000
  O3     O3        0.521370658954907    0.029074539126938    0.271531375503129  0.0000
  O3     O3        0.015993186350337    0.002686000389907    0.736576804821883  0.0000
  O2     O2        0.488137324342841    0.047553214068722    0.753862555827343  0.0000
  O3     O3        0.642790325659010    0.125087638741647    0.107423327871158  0.0000
  O3     O3        0.867008515832546    0.889102598638910    0.127231315432717  0.0000
  O2     O2        0.369583132888310    0.167287364228851    0.885601702416538  0.0000
  O3     O3        0.138250420974858    0.903526352754255    0.901670439970016  0.0000
  O2     O2        0.412090695951403    0.826562517281027    0.902878157631195  0.0000
  O3     O3        0.084500668081623    0.252143829225886    0.900448272210047  0.0000
  O3     O3        0.578594111387294    0.779517733949429    0.099439224556251  0.0000
  O2     O2        0.915505912763580    0.218592125811135    0.101303498620450  0.0000
  O3     O3        0.496801052843737    0.083762754148951    0.003291587473461  0.0000
  O3     O3        0.992698941289661    0.954268900055327    0.001590381673837  0.0000
  O2     O2        0.136942470429082    0.532299464482611    0.308917120851456  0.0000
  O3     O3        0.369727474993141    0.463539254749772    0.313171451193657  0.0000
  O2     O2        0.864631409932211    0.548644156848035    0.701749359687680  0.0000
  O2     O2        0.634907002155615    0.494120547687441    0.697862940353083  0.0000
  O2     O2        0.241367135262118    0.273386770905640    0.315556131432308  0.0000
  O3     O3        0.258259487018723    0.742381706944242    0.331831645698145  0.0000
  O2     O2        0.760959633590850    0.289331065439420    0.684442938111437  0.0000
  O2     O2        0.738851127257730    0.753300773316502    0.679930628188428  0.0000
  O2     O2        0.134906991101702    0.291487443793497    0.130615481879143  0.0000
  O3     O3        0.378148599860058    0.747105867203139    0.137361152055248  0.0000
  O2     O2        0.872038635646081    0.285587526179403    0.867154417760736  0.0000
  O2     O2        0.640426159406472    0.735175384348713    0.874109183757315  0.0000
  O3     O3        0.836834386978912    0.805655393153178    0.866706596223150  0.0000
  O2     O2        0.660802829756791    0.232729109641993    0.869371214609215  0.0000
  O2     O2        0.159193544244920    0.799706233055695    0.143477074772827  0.0000
  O2     O2        0.340902485252060    0.244070626103880    0.126005740987535  0.0000
  O2     O2        0.627833738129348    0.464908032750868    0.041584733183445  0.0000
  O3     O3        0.878134701187384    0.540112036269756    0.038097308316697  0.0000
  O2     O2        0.371634081017277    0.498296322016850    0.961511963101399  0.0000
  O2     O2        0.131101971941881    0.565801597096297    0.968324405546747  0.0000
  O2     O2        0.765924021818269    0.308335693358771    0.047038221028101  0.0000
  O3     O3        0.731118416127876    0.720492739000320    0.072431064371641  0.0000
  O2     O2        0.237251540633717    0.315675220922802    0.942751052826154  0.0000
  O2     O2        0.264990258956556    0.745171106099226    0.968146617424426  0.0000
