data_c00800.vasp
_audit_creation_method             Generated by GULP
_audit_author_name                 Salvador R. G. Balestra
_symmetry_space_group_name_H-M     'P 1             '
_symmetry_Int_Tables_number        1

loop_
_symmetry_equiv_pos_site_id
_symmetry_equiv_pos_as_xyz
_cell_length_a                       16.8892
_cell_length_b                        7.5790
_cell_length_c                       10.4811
_cell_angle_alpha                   89.4281
_cell_angle_beta                    89.9449
_cell_angle_gamma                   90.5132

loop_
_atom_site_label
_atom_site_type_symbol
_atom_site_fract_x
_atom_site_fract_y
_atom_site_fract_z
_atom_site_charge
  Ge     Ge        0.556730000000016    0.000000000000000    0.122129999999970  0.0000
  Ge     Ge        0.944091097023988    0.020595042742681    0.123832920784524  0.0000
  Ge     Ge        0.848229641135588    0.347334505598501    0.713383563830460  0.0000
  Ge     Ge        0.166368956346971    0.736593445778607    0.981568766068319  0.0000
  Si     Si        0.047370029857195    0.011118830854898    0.379900649493722  0.0000
  Si     Si        0.449215721858625    0.003821783825288    0.374893675139097  0.0000
  Si     Si        0.948860513286251    0.037717803230648    0.632555623383033  0.0000
  Si     Si        0.541592499006938    0.009276384315162    0.637735471833238  0.0000
  Si     Si        0.441603860278113    0.014315926676010    0.888018597036032  0.0000
  Si     Si        0.054088702514351    0.015353142878980    0.882363727009298  0.0000
  Si     Si        0.148846883416359    0.321401096890406    0.283977290722899  0.0000
  Si     Si        0.346211664423724    0.692982397344552    0.285548284194883  0.0000
  Si     Si        0.644667087469606    0.701849849955238    0.729693479369961  0.0000
  Si     Si        0.827052319941740    0.758795209427506    0.725661637753092  0.0000
  Si     Si        0.663332039679212    0.296550326956718    0.719750654610707  0.0000
  Si     Si        0.164665904724667    0.730582972607626    0.284469815275438  0.0000
  Si     Si        0.331555748481942    0.288576225771050    0.284713830240052  0.0000
  Si     Si        0.673844103534642    0.280485357561331    0.017729073177735  0.0000
  Si     Si        0.825986698175257    0.742103619025259    0.021944717159565  0.0000
  Si     Si        0.329647401312948    0.292671766675616    0.987881818385543  0.0000
  Si     Si        0.351499159620410    0.689771761050396    0.986144889294147  0.0000
  Si     Si        0.144749628507000    0.331406101266777    0.989373419369865  0.0000
  Si     Si        0.643824059506363    0.675165362627427    0.024758357945717  0.0000
  Si     Si        0.856147194968287    0.345190284555334    0.014675628029560  0.0000
  O2     O2        0.089740352862306    0.203869992178716    0.370168903705214  0.0000
  O2     O2        0.408386192003684    0.810726082345650    0.363625101280821  0.0000
  O3     O3        0.914554210590515    0.232495180605101    0.620727246927568  0.0000
  O2     O2        0.584436517012386    0.820355109586705    0.648151785189206  0.0000
  O2     O2        0.872373909558894    0.907560718160656    0.642553013231664  0.0000
  O2     O2        0.606758189706842    0.165627601576414    0.641336347695913  0.0000
  O2     O2        0.113104133759774    0.858120987661135    0.372294238351473  0.0000
  O2     O2        0.381111506661083    0.152141503676389    0.369134685224029  0.0000
  O2     O2        0.003938024644072    0.990856809375659    0.514477255017934  0.0000
  O2     O2        0.494661119987283    0.017870393728908    0.506835390760522  0.0000
  O3     O3        0.981666601194908    0.988859058299464    0.272998076893187  0.0000
  O3     O3        0.512565374175558    0.037791628162458    0.264930592771772  0.0000
  O2     O2        0.001622841116273    0.012052918533178    0.757795143594087  0.0000
  O2     O2        0.477364026070266    0.034124104768726    0.748254319920822  0.0000
  O3     O3        0.640765691588661    0.130885107871661    0.109296137062888  0.0000
  O3     O3        0.861951108953594    0.883176900325481    0.115258621067306  0.0000
  O2     O2        0.366170665596312    0.144439708836370    0.898260211482654  0.0000
  O3     O3        0.126378380000618    0.881241045656134    0.873908564000792  0.0000
  O2     O2        0.415702495690015    0.810298338251892    0.912327829167272  0.0000
  O2     O2        0.088168137067159    0.213296560069726    0.902152958969456  0.0000
  O3     O3        0.584092979086112    0.781001631770580    0.112139826076052  0.0000
  O3     O3        0.916708107309802    0.237837146717330    0.101643749942387  0.0000
  O3     O3        0.501478848570124    0.075174056505981    0.995667966467071  0.0000
  O3     O3        0.007131417794578    0.948670996726811    0.007108021495336  0.0000
  O2     O2        0.133718113824336    0.529008457399293    0.302917485465501  0.0000
  O2     O2        0.362380553613776    0.486805081707125    0.312713991919126  0.0000
  O3     O3        0.863508899344488    0.570604855216864    0.694133699184209  0.0000
  O2     O2        0.630390753945726    0.495514393341877    0.702197429679254  0.0000
  O2     O2        0.238896542524980    0.273837360874331    0.320305796026484  0.0000
  O2     O2        0.256797458627996    0.740908023063810    0.325545160074196  0.0000
  O3     O3        0.752494779773228    0.292690567207618    0.669620077094244  0.0000
  O2     O2        0.734022352449162    0.756082786268276    0.690033104804008  0.0000
  O2     O2        0.130499302025297    0.272396910421379    0.137056401029897  0.0000
  O2     O2        0.358618078715675    0.735743751267084    0.136067259609666  0.0000
  O3     O3        0.869313377905726    0.288937400079416    0.869060746333084  0.0000
  O2     O2        0.628802579970230    0.739559856132558    0.878664538128126  0.0000
  O2     O2        0.835195680726154    0.806333122856658    0.874858215696334  0.0000
  O2     O2        0.664390621866640    0.235436940783405    0.867912734497231  0.0000
  O3     O3        0.156747898575536    0.795692779313070    0.139589446476612  0.0000
  O2     O2        0.342246341264609    0.240268883481001    0.136206414090909  0.0000
  O2     O2        0.629184546117653    0.466202119971342    0.041841775047757  0.0000
  O2     O2        0.870571976965657    0.554041901533685    0.033725556489562  0.0000
  O2     O2        0.370446686415702    0.483745847835928    0.962018948334867  0.0000
  O3     O3        0.122484198735896    0.531281667747513    0.966004353201974  0.0000
  O2     O2        0.765960686545721    0.298925551716664    0.052193989479193  0.0000
  O2     O2        0.734335541430914    0.719510554893046    0.059917787625065  0.0000
  O2     O2        0.236917993887200    0.303564952360853    0.956072346546951  0.0000
  O3     O3        0.264460141895928    0.730290878912462    0.938755099553695  0.0000
