data_c00860.vasp
_audit_creation_method             Generated by GULP
_audit_author_name                 Salvador R. G. Balestra
_symmetry_space_group_name_H-M     'P 1             '
_symmetry_Int_Tables_number        1

loop_
_symmetry_equiv_pos_site_id
_symmetry_equiv_pos_as_xyz
_cell_length_a                       16.8690
_cell_length_b                        7.5767
_cell_length_c                       10.4798
_cell_angle_alpha                   90.0128
_cell_angle_beta                    90.0896
_cell_angle_gamma                   89.4584

loop_
_atom_site_label
_atom_site_type_symbol
_atom_site_fract_x
_atom_site_fract_y
_atom_site_fract_z
_atom_site_charge
  Ge     Ge        0.556730000000016    0.000000000000000    0.122129999999970  0.0000
  Ge     Ge        0.060656688028079    0.023000987424770    0.872410637851468  0.0000
  Ge     Ge        0.148285441298572    0.341006995817541    0.280182277987400  0.0000
  Ge     Ge        0.330351607141159    0.284048989753756    0.979031057874654  0.0000
  Si     Si        0.046392056402592    0.027051462220913    0.362229397113706  0.0000
  Si     Si        0.453258418254154    0.001989139766834    0.376745514987361  0.0000
  Si     Si        0.953236886693598    0.007772124133729    0.620742715857724  0.0000
  Si     Si        0.550775440515830    0.997757331359862    0.633804112365534  0.0000
  Si     Si        0.947335961923536    0.000120786498719    0.108686526822098  0.0000
  Si     Si        0.445108857368522    0.003790217600089    0.882419211980622  0.0000
  Si     Si        0.352890225896161    0.695601536670956    0.278793879813011  0.0000
  Si     Si        0.851565170574555    0.317916675209298    0.712789357805750  0.0000
  Si     Si        0.653538139901553    0.688265191887627    0.718462978265041  0.0000
  Si     Si        0.835776773264552    0.722801428326286    0.717337623076401  0.0000
  Si     Si        0.668395355650934    0.281537741218062    0.717413962228719  0.0000
  Si     Si        0.170180391326733    0.752576347868490    0.273203658257400  0.0000
  Si     Si        0.332223297525063    0.288704089292257    0.284452047212499  0.0000
  Si     Si        0.673133598717814    0.276665145281610    0.013000134003080  0.0000
  Si     Si        0.833904855033144    0.720052382915698    0.015242918148260  0.0000
  Si     Si        0.176771014410132    0.744574241642020    0.977969767283696  0.0000
  Si     Si        0.360949565207144    0.681985153888381    0.984968304357472  0.0000
  Si     Si        0.146423700290461    0.349157326805994    0.975692813425584  0.0000
  Si     Si        0.650870373097229    0.678015809784929    0.014720206472703  0.0000
  Si     Si        0.856536812482248    0.321559621285626    0.008566979409348  0.0000
  O3     O3        0.077815576228160    0.225170684903904    0.363856092536274  0.0000
  O2     O2        0.411898750626615    0.810669866149667    0.364812797337693  0.0000
  O2     O2        0.910832769884524    0.200173980215279    0.628020069405905  0.0000
  O2     O2        0.594191650440411    0.806629794155208    0.633422144683821  0.0000
  O2     O2        0.886638345089376    0.857920835069624    0.635067577658242  0.0000
  O2     O2        0.617228517344666    0.150376576641086    0.630526251052873  0.0000
  O2     O2        0.124748625544744    0.901720723467949    0.354899063483944  0.0000
  O2     O2        0.387648413756393    0.156878410545246    0.365706416195113  0.0000
  O2     O2        0.995102820595599    0.984524107127834    0.485659218904749  0.0000
  O2     O2        0.493860960852920    0.014774156069964    0.513827118208148  0.0000
  O2     O2        0.990030501842319    0.985835003773407    0.243148370592875  0.0000
  O3     O3        0.521220902319353    0.025107126291222    0.272986302629554  0.0000
  O3     O3        0.020809551431322    0.986647250542183    0.725547499988590  0.0000
  O2     O2        0.497719030035017    0.022699820334983    0.758308539699274  0.0000
  O3     O3        0.637323381817921    0.137814652352513    0.107359099053415  0.0000
  O2     O2        0.874419464276676    0.863061989266097    0.105862136048726  0.0000
  O3     O3        0.368860280361805    0.129270001127052    0.876372525178213  0.0000
  O3     O3        0.145594095433935    0.891660794204767    0.883463738736148  0.0000
  O2     O2        0.418399300385649    0.800230355122046    0.898768698297922  0.0000
  O3     O3        0.083794027123652    0.242626756187310    0.891686220761451  0.0000
  O3     O3        0.589433435640469    0.785188077362500    0.099042792699461  0.0000
  O2     O2        0.916407017899495    0.202021784686447    0.090888162698628  0.0000
  O3     O3        0.490369978917142    0.070018416545826    0.008601006601722  0.0000
  O3     O3        0.003026483819662    0.943036674324239    0.993740224253099  0.0000
  O3     O3        0.131732517891986    0.564352692273971    0.298953275595975  0.0000
  O2     O2        0.366975448440278    0.487222166179807    0.298608453548770  0.0000
  O2     O2        0.865715277302515    0.524292020498275    0.685882227264115  0.0000
  O2     O2        0.638721640132542    0.481788596836128    0.692040592688264  0.0000
  O3     O3        0.242771121255384    0.289625180602827    0.334137037136528  0.0000
  O2     O2        0.262575056073919    0.745758092069574    0.314438281291382  0.0000
  O2     O2        0.761141435813929    0.266286664201792    0.681358205231234  0.0000
  O2     O2        0.743254051768770    0.739184659792602    0.681192268326966  0.0000
  O3     O3        0.138729361351437    0.285286212487173    0.121640242410563  0.0000
  O2     O2        0.373165124034387    0.744073174800988    0.132094462810483  0.0000
  O2     O2        0.873063129241230    0.276162771188578    0.860086869633522  0.0000
  O2     O2        0.637282580512376    0.732086796207362    0.866684128950613  0.0000
  O2     O2        0.846284271051207    0.768685421265493    0.866527809756661  0.0000
  O2     O2        0.657780522346235    0.225907962513966    0.864833749161025  0.0000
  O2     O2        0.166183576583114    0.807662381254071    0.124569840108389  0.0000
  O3     O3        0.332468718077079    0.226060740921957    0.138221577524081  0.0000
  O2     O2        0.635792015210864    0.471034206502791    0.036174249447442  0.0000
  O2     O2        0.872690177817856    0.526503915139950    0.039339980150491  0.0000
  O3     O3        0.382291749727743    0.479891011958066    0.965274886018838  0.0000
  O2     O2        0.130281715585088    0.559256849080056    0.963052445001878  0.0000
  O2     O2        0.766601083799113    0.277998120218922    0.041334294592008  0.0000
  O2     O2        0.741508257133330    0.721802541064322    0.050942666229347  0.0000
  O3     O3        0.234386991951266    0.305996815182940    0.927492951559130  0.0000
  O2     O2        0.269047291718048    0.709342365232346    0.948118617658092  0.0000
