data_c00838.vasp
_audit_creation_method             Generated by GULP
_audit_author_name                 Salvador R. G. Balestra
_symmetry_space_group_name_H-M     'P 1             '
_symmetry_Int_Tables_number        1

loop_
_symmetry_equiv_pos_site_id
_symmetry_equiv_pos_as_xyz
_cell_length_a                       17.0507
_cell_length_b                        7.6040
_cell_length_c                       10.3455
_cell_angle_alpha                   89.6505
_cell_angle_beta                    90.1366
_cell_angle_gamma                   89.9957

loop_
_atom_site_label
_atom_site_type_symbol
_atom_site_fract_x
_atom_site_fract_y
_atom_site_fract_z
_atom_site_charge
  Ge     Ge        0.556730000000016    0.000000000000000    0.122129999999970  0.0000
  Ge     Ge        0.438362251244466    0.001500113114065    0.879506343360297  0.0000
  Ge     Ge        0.327030353619690    0.710960260489953    0.268416613433212  0.0000
  Ge     Ge        0.162911497693918    0.266784050205365    0.957298700138299  0.0000
  Si     Si        0.043232298773721    0.977867305636023    0.352458104667055  0.0000
  Si     Si        0.449023655515409    0.995200480379008    0.368699195398493  0.0000
  Si     Si        0.943638951145819    0.982250571728780    0.609447459532716  0.0000
  Si     Si        0.546370287354118    0.000330910059572    0.626131324799012  0.0000
  Si     Si        0.943224961131538    0.994869430154789    0.096846206004079  0.0000
  Si     Si        0.051385028551578    0.984817028899132    0.859123399605392  0.0000
  Si     Si        0.161764818100057    0.261002692238017    0.264590023823735  0.0000
  Si     Si        0.829640488353828    0.273094207049713    0.702018688996268  0.0000
  Si     Si        0.662004906446028    0.713238498934432    0.703468050988735  0.0000
  Si     Si        0.843183871690354    0.675105739713836    0.695098915872761  0.0000
  Si     Si        0.648838230959510    0.308156660662530    0.709600409664260  0.0000
  Si     Si        0.144014747020375    0.667897826470675    0.269279670187120  0.0000
  Si     Si        0.342181392286924    0.297427641260231    0.260916230021481  0.0000
  Si     Si        0.649554831362905    0.320195347454610    0.009614452526866  0.0000
  Si     Si        0.851532370085705    0.676499153727242    0.995352893830130  0.0000
  Si     Si        0.345376976241123    0.325268450621735    0.960040499068566  0.0000
  Si     Si        0.139346249472666    0.666625819077446    0.967375729577002  0.0000
  Si     Si        0.319945136285333    0.723062982590426    0.964117584554516  0.0000
  Si     Si        0.670238200345343    0.720537787144358    0.003265238038589  0.0000
  Si     Si        0.830925003546145    0.279652129363229    0.004036027072525  0.0000
  O2     O2        0.111764841376104    0.124447825723120    0.350500257622171  0.0000
  O3     O3        0.387501170374546    0.837391900181229    0.361667952385541  0.0000
  O2     O2        0.879057849546505    0.137041571759375    0.617389551383718  0.0000
  O2     O2        0.611546773025601    0.844851053431330    0.613772621292103  0.0000
  O2     O2        0.899126271926646    0.794855088531034    0.606403349592230  0.0000
  O2     O2        0.589381722937118    0.190002203552051    0.626998166084988  0.0000
  O2     O2        0.081290279227644    0.782923586094097    0.349387985745446  0.0000
  O2     O2        0.403264102632468    0.176209277790062    0.337660114134208  0.0000
  O2     O2        0.993999227771665    0.002940836089883    0.481490063401710  0.0000
  O2     O2        0.483317176997250    0.001242877348099    0.512747538058840  0.0000
  O2     O2        0.984013694992587    0.007466597014871    0.234340528894330  0.0000
  O3     O3        0.523488984026051    0.973569613258187    0.277044054352618  0.0000
  O2     O2        0.001829635477875    0.994398276832351    0.729749743916896  0.0000
  O3     O3        0.500785595131674    0.960298778769271    0.756341445667367  0.0000
  O3     O3        0.590110471209509    0.213237907434874    0.096941410840902  0.0000
  O2     O2        0.910862801931304    0.797232471606843    0.076090055312767  0.0000
  O3     O3        0.408431144427993    0.219225275975385    0.878235965398861  0.0000
  O2     O2        0.081730647461495    0.786672373647689    0.882038984739487  0.0000
  O3     O3        0.357455015162464    0.863223993006921    0.869087388345863  0.0000
  O3     O3        0.123541492716628    0.117433980283738    0.851995061985808  0.0000
  O3     O3        0.634833225172010    0.859618376526281    0.098490498948969  0.0000
  O2     O2        0.872724288648198    0.135848406437392    0.094010995432696  0.0000
  O1     O1        0.482867387524128    0.943890787781991    0.021325627283352  0.0000
  O2     O2        0.002507803330203    0.051029237920049    0.983456532810826  0.0000
  O2     O2        0.129444988848900    0.458731934042903    0.286832034007864  0.0000
  O3     O3        0.361430120352944    0.498630261057495    0.285453540098332  0.0000
  O2     O2        0.858334558496559    0.469998546480425    0.666606965247637  0.0000
  O2     O2        0.632541557543070    0.513574283843609    0.681319678236844  0.0000
  O2     O2        0.253361852605640    0.252790659586260    0.306374027304486  0.0000
  O3     O3        0.230349431888713    0.715152374869029    0.317890788901477  0.0000
  O2     O2        0.737387187540784    0.256889885112412    0.670121819509982  0.0000
  O2     O2        0.753233569773884    0.725328291148819    0.664740207437732  0.0000
  O3     O3        0.156139600165590    0.202664581607294    0.116861289628871  0.0000
  O3     O3        0.328737976497353    0.786753605270611    0.111426961448325  0.0000
  O2     O2        0.841898994363930    0.231272377766097    0.853544212391999  0.0000
  O2     O2        0.652942341539685    0.769540983112424    0.853197310128363  0.0000
  O2     O2        0.864451576600071    0.716019280179940    0.843784487539512  0.0000
  O2     O2        0.633401333759664    0.265872078937809    0.860530444612218  0.0000
  O2     O2        0.132932854315178    0.717954021488465    0.118398771478089  0.0000
  O2     O2        0.350951991906148    0.255462084647549    0.108562135056373  0.0000
  O2     O2        0.634338860147337    0.526994865738069    0.029928366188725  0.0000
  O2     O2        0.868379478665600    0.472219119984176    0.028673317031294  0.0000
  O2     O2        0.363189090177334    0.533280931723981    0.954118069925384  0.0000
  O3     O3        0.116204087329610    0.467886699985807    0.943019113626027  0.0000
  O2     O2        0.739890162908671    0.276688938485527    0.042790614888913  0.0000
  O2     O2        0.762753749378417    0.720850078621806    0.031302637012859  0.0000
  O3     O3        0.258873527223425    0.285544138922029    0.909015875821405  0.0000
  O2     O2        0.229207416383089    0.697884078285452    0.925537843320058  0.0000
