data_c00848.vasp
_audit_creation_method             Generated by GULP
_audit_author_name                 Salvador R. G. Balestra
_symmetry_space_group_name_H-M     'P 1             '
_symmetry_Int_Tables_number        1

loop_
_symmetry_equiv_pos_site_id
_symmetry_equiv_pos_as_xyz
_cell_length_a                       16.8835
_cell_length_b                        7.5943
_cell_length_c                       10.4008
_cell_angle_alpha                   89.9927
_cell_angle_beta                    90.6341
_cell_angle_gamma                   89.9454

loop_
_atom_site_label
_atom_site_type_symbol
_atom_site_fract_x
_atom_site_fract_y
_atom_site_fract_z
_atom_site_charge
  Ge     Ge        0.556730000000016    0.000000000000000    0.122129999999970  0.0000
  Ge     Ge        0.437043146906055    0.996714948532820    0.882459067347089  0.0000
  Ge     Ge        0.832022956096992    0.727453139141765    0.032830242584642  0.0000
  Ge     Ge        0.165112785671432    0.726732751242304    0.991303859731081  0.0000
  Si     Si        0.049945218823033    0.015143957850380    0.387536657537362  0.0000
  Si     Si        0.449871205370594    0.996705643674628    0.375198270983083  0.0000
  Si     Si        0.945117029353053    0.014491427629145    0.637906985971045  0.0000
  Si     Si        0.543760987144630    0.996039336132794    0.637235703878755  0.0000
  Si     Si        0.946760010245606    0.007733030622050    0.131900162921594  0.0000
  Si     Si        0.050636847122085    0.006905580735521    0.891626795074206  0.0000
  Si     Si        0.148539686775718    0.323348394477801    0.299264519521231  0.0000
  Si     Si        0.347214669894723    0.684162714260443    0.291148073745986  0.0000
  Si     Si        0.844863494251472    0.322150974368815    0.724782169221994  0.0000
  Si     Si        0.647750818896873    0.687761986752402    0.737487204332543  0.0000
  Si     Si        0.828990985362388    0.728570182049285    0.727167651918795  0.0000
  Si     Si        0.663255993020754    0.282657105003192    0.734511105288501  0.0000
  Si     Si        0.165966398795338    0.728823183223274    0.297283816074539  0.0000
  Si     Si        0.331364275060815    0.280599859316316    0.294876908702514  0.0000
  Si     Si        0.674917659707756    0.276570122220391    0.032838449294118  0.0000
  Si     Si        0.322637636927499    0.274244824239592    0.996820186508408  0.0000
  Si     Si        0.349706649381916    0.669545626562968    0.989880022191554  0.0000
  Si     Si        0.138088410567767    0.326597846890867    0.002406302044919  0.0000
  Si     Si        0.647386808681524    0.670960277338239    0.038273453592399  0.0000
  Si     Si        0.858235559005099    0.327338026996549    0.022637320786156  0.0000
  O2     O2        0.092505862392818    0.206104672648263    0.389508946647350  0.0000
  O2     O2        0.410236179725492    0.803044876883847    0.368660589211951  0.0000
  O2     O2        0.901764965591326    0.204698021799556    0.635978472104397  0.0000
  O2     O2        0.583851460137631    0.805418412305433    0.661580769057778  0.0000
  O2     O2        0.879203931872850    0.860367660258101    0.638416372672135  0.0000
  O2     O2        0.609287709657531    0.149173261688512    0.653173815115089  0.0000
  O2     O2        0.116354161272550    0.861850828123163    0.385977019108343  0.0000
  O2     O2        0.380815841404265    0.145325453829644    0.383549392982593  0.0000
  O2     O2        0.997729107766253    0.994616527952969    0.512887377426860  0.0000
  O2     O2        0.510034771214778    0.003599652992068    0.493797214059853  0.0000
  O2     O2        0.993154309815262    0.996053387492206    0.264817941072897  0.0000
  O3     O3        0.500907090676453    0.042616984273446    0.252739537372533  0.0000
  O2     O2        0.001991455127906    0.996157688533522    0.760756948461304  0.0000
  O3     O3        0.469501063086214    0.022110528365359    0.728367733540687  0.0000
  O3     O3        0.641760822265062    0.128938650379222    0.124053874359199  0.0000
  O3     O3        0.872646911792382    0.878928642658856    0.135845761928167  0.0000
  O3     O3        0.353298474943112    0.125005261767350    0.904355095040950  0.0000
  O3     O3        0.124430942418180    0.876870062278091    0.886777952776051  0.0000
  O3     O3        0.413871210356105    0.778124178885493    0.912857770218446  0.0000
  O2     O2        0.080864663253382    0.205884833982875    0.915810285411054  0.0000
  O3     O3        0.584188429794313    0.780326286398944    0.117504199536555  0.0000
  O2     O2        0.917622568189469    0.207070896615702    0.105770357480510  0.0000
  O1     O1        0.507422110457141    0.067698997258741    0.987315350430183  0.0000
  O2     O2        0.999414972336213    0.937663417283103    0.012732539078980  0.0000
  O2     O2        0.133183015694718    0.530799497873479    0.319559957150106  0.0000
  O2     O2        0.364585690640965    0.478175157843939    0.317213985815279  0.0000
  O2     O2        0.860324838547754    0.529513727609729    0.704129670979670  0.0000
  O2     O2        0.630553332037156    0.481072206313004    0.713509617860682  0.0000
  O2     O2        0.239352850948026    0.275745923909236    0.333586173345491  0.0000
  O2     O2        0.258895870305149    0.733561795501309    0.336764594099830  0.0000
  O2     O2        0.754138111552597    0.274601932931037    0.688436906486035  0.0000
  O2     O2        0.735720305388422    0.736582772885806    0.689726660445116  0.0000
  O2     O2        0.127444345344939    0.273391846899071    0.151983823566617  0.0000
  O2     O2        0.356451819674858    0.725746233779862    0.140286890670156  0.0000
  O2     O2        0.864754914403662    0.273245679150116    0.872593074722843  0.0000
  O2     O2        0.639319627489512    0.730379362951942    0.888367094860745  0.0000
  O3     O3        0.837984264652314    0.788800116309369    0.873542542840526  0.0000
  O2     O2        0.661208815014349    0.224457182275892    0.883149543645037  0.0000
  O3     O3        0.158392942818261    0.788538323059548    0.150505382816602  0.0000
  O2     O2        0.338398389760000    0.221574176138976    0.146098560308338  0.0000
  O2     O2        0.630897762632980    0.463408463739789    0.055677550203307  0.0000
  O3     O3        0.880547062534740    0.527345585797324    0.046383406601037  0.0000
  O2     O2        0.366012943494740    0.461211559855932    0.972244714661522  0.0000
  O3     O3        0.116818424416413    0.526762118129077    0.976473888161647  0.0000
  O2     O2        0.767621449586315    0.299358308525112    0.064403570107330  0.0000
  O3     O3        0.735860682164202    0.714160500439259    0.083174666843877  0.0000
  O2     O2        0.229780380895368    0.298177305565313    0.967940588339584  0.0000
  O3     O3        0.261763297810261    0.714607444434158    0.942516654573008  0.0000
