data_c00877.vasp
_audit_creation_method             Generated by GULP
_audit_author_name                 Salvador R. G. Balestra
_symmetry_space_group_name_H-M     'P 1             '
_symmetry_Int_Tables_number        1

loop_
_symmetry_equiv_pos_site_id
_symmetry_equiv_pos_as_xyz
_cell_length_a                       16.7981
_cell_length_b                        7.5796
_cell_length_c                       10.5085
_cell_angle_alpha                   89.4690
_cell_angle_beta                    89.9434
_cell_angle_gamma                   90.3792

loop_
_atom_site_label
_atom_site_type_symbol
_atom_site_fract_x
_atom_site_fract_y
_atom_site_fract_z
_atom_site_charge
  Ge     Ge        0.556730000000016    0.000000000000000    0.122129999999970  0.0000
  Ge     Ge        0.053830317208824    0.033338721424788    0.868400519536678  0.0000
  Ge     Ge        0.673442630924726    0.279832580147429    0.008534313953874  0.0000
  Ge     Ge        0.827201091850631    0.751608720082834    0.009483571786786  0.0000
  Si     Si        0.045111813496813    0.034123012954302    0.356171460724622  0.0000
  Si     Si        0.447946249238734    0.017501839712258    0.372660061589507  0.0000
  Si     Si        0.947631976729782    0.041032566268714    0.613652319007386  0.0000
  Si     Si        0.545358534135668    0.018131139279120    0.629386528449968  0.0000
  Si     Si        0.942360840370942    0.030557573150586    0.105647176595344  0.0000
  Si     Si        0.447098889944058    0.036968224789189    0.883460548789161  0.0000
  Si     Si        0.148909959338433    0.341987755045513    0.267511660502442  0.0000
  Si     Si        0.346520420754149    0.711371368446458    0.277968954541315  0.0000
  Si     Si        0.848214748521040    0.351363566930178    0.704488525893812  0.0000
  Si     Si        0.646734230591945    0.705330392473432    0.716722834685985  0.0000
  Si     Si        0.828598842788207    0.756303631333819    0.707511261221601  0.0000
  Si     Si        0.666211174518444    0.299343323871655    0.708185358220603  0.0000
  Si     Si        0.162589848675648    0.748937164956339    0.268534385845465  0.0000
  Si     Si        0.332108230677036    0.306642920566785    0.273267802955125  0.0000
  Si     Si        0.332543209704451    0.315255366792317    0.976569454976005  0.0000
  Si     Si        0.170421376992374    0.756536428899652    0.974146937629435  0.0000
  Si     Si        0.354894585227171    0.714022477592377    0.983472666206336  0.0000
  Si     Si        0.148357003676541    0.354883888009667    0.972586419357203  0.0000
  Si     Si        0.641042735677283    0.677649328023782    0.013025524423676  0.0000
  Si     Si        0.859470654964475    0.356217248736398    0.001188115126627  0.0000
  O2     O2        0.089429362764395    0.223648984185866    0.352401834932859  0.0000
  O2     O2        0.404320335661671    0.827243650690788    0.365355266833069  0.0000
  O2     O2        0.909640062629982    0.236630867443621    0.622322751555851  0.0000
  O2     O2        0.584560417896161    0.823892141183505    0.637573030579342  0.0000
  O2     O2        0.877596269562817    0.894255906478580    0.620311962749524  0.0000
  O2     O2        0.614272650416007    0.167925441779912    0.620801644084267  0.0000
  O2     O2        0.110593236241187    0.878564055598009    0.354696911903142  0.0000
  O2     O2        0.382414617554333    0.171050491352241    0.357688535742693  0.0000
  O2     O2        0.992936626820379    0.020910569792169    0.481619617953521  0.0000
  O2     O2        0.490139751500342    0.032264292494125    0.507238004470647  0.0000
  O2     O2        0.986109929998795    0.012270455798301    0.238685019113552  0.0000
  O3     O3        0.515078205791342    0.037691138548069    0.266592715503724  0.0000
  O3     O3        0.011722296494287    0.008676966779773    0.722793663099727  0.0000
  O2     O2        0.489007139615287    0.054280090599781    0.748644444544757  0.0000
  O1     O1        0.643845469823119    0.118933474888020    0.110176224190748  0.0000
  O3     O3        0.862855302238597    0.913251210738922    0.107992269440508  0.0000
  O2     O2        0.373952925898297    0.174201788184520    0.886502552246414  0.0000
  O3     O3        0.135247135687860    0.894916131212786    0.877663448060782  0.0000
  O2     O2        0.415811192775676    0.835589085530551    0.903852642259274  0.0000
  O3     O3        0.088036641980300    0.247649521008709    0.886681966551709  0.0000
  O3     O3        0.577739627453319    0.781057195812695    0.096922557006701  0.0000
  O2     O2        0.922924193505017    0.235860850454086    0.075969323913168  0.0000
  O3     O3        0.504789967463801    0.092334266959478    0.996229903790122  0.0000
  O3     O3        0.993418536560358    0.956448755265699    0.989019361057555  0.0000
  O2     O2        0.133099192470453    0.548132526221984    0.292488214525096  0.0000
  O2     O2        0.361295405213230    0.504949926713048    0.304669400216220  0.0000
  O2     O2        0.864125250309955    0.560244053948284    0.686029353952058  0.0000
  O2     O2        0.630611616173644    0.497147824926920    0.696157963527676  0.0000
  O2     O2        0.238797348280445    0.290623366407471    0.306248810095544  0.0000
  O2     O2        0.255395943897908    0.762600048688914    0.306494997496125  0.0000
  O2     O2        0.758284668600168    0.303975529301258    0.662386589468234  0.0000
  O2     O2        0.735484029663170    0.755154383036264    0.668853080271478  0.0000
  O2     O2        0.133241105193321    0.298013955457289    0.119794473467240  0.0000
  O2     O2        0.370210833304678    0.757213076942798    0.132087548725276  0.0000
  O2     O2        0.862793499038921    0.300846393664806    0.851976750347396  0.0000
  O2     O2        0.637511562159719    0.748019574762381    0.865937402667400  0.0000
  O3     O3        0.834699301923363    0.817673156120806    0.852007371201883  0.0000
  O3     O3        0.664657605571683    0.223073804289489    0.850097774128123  0.0000
  O2     O2        0.153275110284774    0.807009427196339    0.121356350676434  0.0000
  O2     O2        0.344654373579038    0.262598497850797    0.124792411609843  0.0000
  O3     O3        0.620467643974840    0.473770799033343    0.025490603428865  0.0000
  O3     O3        0.881519458333873    0.558374743145622    0.021233118973788  0.0000
  O2     O2        0.371303539598543    0.509209838693552    0.953749052753774  0.0000
  O2     O2        0.133527492766504    0.562157397862872    0.951076680710675  0.0000
  O3     O3        0.770773503952646    0.323552162239337    0.049061054854124  0.0000
  O3     O3        0.730917605459502    0.716149471190166    0.057841587556033  0.0000
  O2     O2        0.240017353589615    0.313009511116879    0.939671588521591  0.0000
  O2     O2        0.264677844672516    0.757006988971884    0.948896005940949  0.0000
