data_c00888.vasp
_audit_creation_method             Generated by GULP
_audit_author_name                 Salvador R. G. Balestra
_symmetry_space_group_name_H-M     'P 1             '
_symmetry_Int_Tables_number        1

loop_
_symmetry_equiv_pos_site_id
_symmetry_equiv_pos_as_xyz
_cell_length_a                       17.2320
_cell_length_b                        7.6382
_cell_length_c                       10.2620
_cell_angle_alpha                   90.5434
_cell_angle_beta                    90.0012
_cell_angle_gamma                   89.6135

loop_
_atom_site_label
_atom_site_type_symbol
_atom_site_fract_x
_atom_site_fract_y
_atom_site_fract_z
_atom_site_charge
  Ge     Ge        0.556730000000016    0.000000000000000    0.122129999999970  0.0000
  Ge     Ge        0.159643354545653    0.262097072241756    0.264004788648419  0.0000
  Ge     Ge        0.330768270887114    0.705848337076060    0.269045658433187  0.0000
  Ge     Ge        0.662336716922273    0.701087088067536    0.702956250929160  0.0000
  Si     Si        0.041749664203851    0.978119519063183    0.349015378435313  0.0000
  Si     Si        0.449047822647726    0.995922129022203    0.370374930051617  0.0000
  Si     Si        0.946965763229594    0.967505740617602    0.609650210060866  0.0000
  Si     Si        0.545164402450992    0.990548374026968    0.627080744904300  0.0000
  Si     Si        0.943246302338808    0.985586303651255    0.090326157889005  0.0000
  Si     Si        0.441286234001667    0.985722643819501    0.879705904464156  0.0000
  Si     Si        0.056043309982543    0.981433314156395    0.852132319564360  0.0000
  Si     Si        0.832700417000986    0.262842694207559    0.706333188009999  0.0000
  Si     Si        0.844496003775488    0.663953183302920    0.698976896098599  0.0000
  Si     Si        0.653565202308915    0.288081242429943    0.710263003896240  0.0000
  Si     Si        0.149562298685084    0.677273965376689    0.266302441130165  0.0000
  Si     Si        0.341087059781182    0.292949298234590    0.266036890274077  0.0000
  Si     Si        0.653242223797362    0.309986290347338    0.011976085493751  0.0000
  Si     Si        0.847702784227715    0.669431625346940    0.005354913461930  0.0000
  Si     Si        0.342698148727063    0.301289200435113    0.959735897001945  0.0000
  Si     Si        0.151158985093009    0.670024801905510    0.959725841059954  0.0000
  Si     Si        0.331502711453383    0.698522896827994    0.957672507146482  0.0000
  Si     Si        0.162048903991811    0.269668884713855    0.954473026617106  0.0000
  Si     Si        0.669159038516326    0.712798799527153    0.009675416404837  0.0000
  Si     Si        0.831837900759607    0.275380458547625    0.011662893698493  0.0000
  O3     O3        0.103610838017714    0.132607067281461    0.360998702660005  0.0000
  O3     O3        0.390441163350745    0.835037297455763    0.360684340227068  0.0000
  O2     O2        0.883794955352074    0.121943430383603    0.627967824722369  0.0000
  O3     O3        0.602499999307686    0.826744920962623    0.607368799414931  0.0000
  O2     O2        0.906050970854674    0.779461923072781    0.620738629813053  0.0000
  O2     O2        0.597339411126150    0.164890120455236    0.626674327753555  0.0000
  O2     O2        0.086712433556827    0.792456871999214    0.345296840355346  0.0000
  O2     O2        0.404423591253440    0.176392298843766    0.339404964818249  0.0000
  O2     O2        0.981326721610854    0.982420337679015    0.466202170972708  0.0000
  O2     O2        0.480256999610346    0.005212204076647    0.517386348255022  0.0000
  O2     O2        0.995304824141188    0.008240811264484    0.216109739957528  0.0000
  O3     O3        0.522603555651143    0.975452202554300    0.277448155458425  0.0000
  O2     O2        0.017607246565278    0.984420590006654    0.710685096553072  0.0000
  O2     O2        0.502027073149422    0.967581947984624    0.764304532435601  0.0000
  O3     O3        0.595073088572183    0.206723415387462    0.102186521260046  0.0000
  O2     O2        0.906083797940411    0.792185666003437    0.085806424796737  0.0000
  O2     O2        0.399696723515382    0.176490154603876    0.876581748121672  0.0000
  O2     O2        0.095531520527644    0.792050740256423    0.874235228797648  0.0000
  O2     O2        0.376740069961905    0.833345850102090    0.866115731365628  0.0000
  O2     O2        0.119764560411409    0.134987056780542    0.856999161111357  0.0000
  O3     O3        0.628496591889821    0.842963410747318    0.108599221546041  0.0000
  O2     O2        0.876057867095520    0.133163157605126    0.098002505678550  0.0000
  O3     O3        0.482983672986458    0.956393936620750    0.016031072127582  0.0000
  O2     O2        0.991999788268431    0.021259807953230    0.960963608509205  0.0000
  O3     O3        0.144508552401962    0.478021936788966    0.308036174728778  0.0000
  O3     O3        0.345095624167517    0.490968392338733    0.314629892295056  0.0000
  O2     O2        0.861019539131668    0.458038964260413    0.671481634896818  0.0000
  O3     O3        0.633018177768609    0.487275311050763    0.684156411924010  0.0000
  O3     O3        0.256524451889501    0.213644345857508    0.288439402730523  0.0000
  O3     O3        0.234173191774252    0.754822356086210    0.294400167351489  0.0000
  O2     O2        0.742337408077475    0.244595663505877    0.667907585567359  0.0000
  O3     O3        0.758311645908784    0.713134800682109    0.655471148165530  0.0000
  O3     O3        0.138797487226420    0.226992203959794    0.101426112722288  0.0000
  O3     O3        0.352263692097537    0.735689768241891    0.107085389373169  0.0000
  O2     O2        0.840993821082141    0.226961288345342    0.859632784584258  0.0000
  O3     O3        0.655935881793206    0.774310020790210    0.862245287670206  0.0000
  O2     O2        0.856058707529273    0.705523392674530    0.852014806702794  0.0000
  O2     O2        0.641840504789879    0.244303986364730    0.863042375649669  0.0000
  O2     O2        0.131901582328846    0.694772282445113    0.111821971423976  0.0000
  O2     O2        0.361827277395519    0.284188815624038    0.112223074802664  0.0000
  O2     O2        0.635045821198194    0.516480530320628    0.021524705403735  0.0000
  O2     O2        0.867854697438113    0.467744433363476    0.037999339035077  0.0000
  O2     O2        0.356670281773928    0.500847157720238    0.916778812040631  0.0000
  O2     O2        0.137110587808071    0.468316903342759    0.919008059728887  0.0000
  O2     O2        0.742092527826911    0.272659820806005    0.053881294221848  0.0000
  O2     O2        0.759944109097611    0.711270491476761    0.046404412910203  0.0000
  O2     O2        0.254140749471846    0.246295697846960    0.935449267961058  0.0000
  O2     O2        0.239815082164660    0.723441162763192    0.934866155104743  0.0000
