data_c00863.vasp
_audit_creation_method             Generated by GULP
_audit_author_name                 Salvador R. G. Balestra
_symmetry_space_group_name_H-M     'P 1             '
_symmetry_Int_Tables_number        1

loop_
_symmetry_equiv_pos_site_id
_symmetry_equiv_pos_as_xyz
_cell_length_a                       16.8988
_cell_length_b                        7.5656
_cell_length_c                       10.4551
_cell_angle_alpha                   89.4177
_cell_angle_beta                    90.4685
_cell_angle_gamma                   89.3847

loop_
_atom_site_label
_atom_site_type_symbol
_atom_site_fract_x
_atom_site_fract_y
_atom_site_fract_z
_atom_site_charge
  Ge     Ge        0.556730000000016    0.000000000000000    0.122129999999970  0.0000
  Ge     Ge        0.051235352587193    0.043091283925323    0.854702874894870  0.0000
  Ge     Ge        0.142859529267186    0.339760427077507    0.267402306274181  0.0000
  Ge     Ge        0.139978740604509    0.371598469187582    0.957520925389623  0.0000
  Si     Si        0.039880706022502    0.028729596042861    0.353519935776800  0.0000
  Si     Si        0.448209505790788    0.005627205933106    0.368689401968043  0.0000
  Si     Si        0.941725982841290    0.016184782835293    0.606821121892805  0.0000
  Si     Si        0.539429723862246    0.011629024148708    0.631440365438340  0.0000
  Si     Si        0.943642159411302    0.005661466195231    0.095773457493221  0.0000
  Si     Si        0.440378458875215    0.025490187901730    0.885326155190611  0.0000
  Si     Si        0.345902896385215    0.702338092680611    0.275678037007431  0.0000
  Si     Si        0.842390180601344    0.327648025738669    0.701141468518762  0.0000
  Si     Si        0.642914287377659    0.697614929831373    0.714705246408505  0.0000
  Si     Si        0.824573819661537    0.733193773069295    0.705287875761426  0.0000
  Si     Si        0.659658981051134    0.289870931898210    0.712219562001902  0.0000
  Si     Si        0.163383573913492    0.756083307692404    0.268367066340670  0.0000
  Si     Si        0.325809960127522    0.298186932991816    0.270007174333785  0.0000
  Si     Si        0.669628023531837    0.278311242437358    0.008186932864615  0.0000
  Si     Si        0.828982718621011    0.726802773661036    0.003908280995912  0.0000
  Si     Si        0.323641987552965    0.312755607049587    0.967093879204172  0.0000
  Si     Si        0.168236047427493    0.774707981739632    0.971374994429919  0.0000
  Si     Si        0.351255195988150    0.703559906374894    0.980140858839712  0.0000
  Si     Si        0.646756783730022    0.679092996217947    0.011551251281133  0.0000
  Si     Si        0.852419781107449    0.328791834647731    0.997175466042832  0.0000
  O3     O3        0.073898700069517    0.224298784330665    0.355568723505898  0.0000
  O2     O2        0.405839973194965    0.815139573314021    0.361620502924385  0.0000
  O2     O2        0.901077053721794    0.210903791207014    0.615482320463518  0.0000
  O2     O2        0.580691917176384    0.817511234337845    0.634417152992365  0.0000
  O2     O2        0.873548229275886    0.869815935910731    0.620506020746543  0.0000
  O2     O2        0.607866214640520    0.159676138789097    0.625947327191021  0.0000
  O2     O2        0.116027481371594    0.895900248740408    0.355003977258233  0.0000
  O2     O2        0.384133273773287    0.158333201756691    0.337487770915930  0.0000
  O2     O2        0.983154217175223    0.993643747124227    0.471865053548744  0.0000
  O2     O2        0.482583348511304    0.030499919372773    0.509945223531408  0.0000
  O2     O2        0.987046162362426    0.987254908967498    0.229944663797810  0.0000
  O3     O3        0.521035450219042    0.017962608337788    0.273260929157187  0.0000
  O3     O3        0.009432165300919    0.987894555245034    0.711908651968697  0.0000
  O2     O2        0.486299684894666    0.045619111848120    0.754307735682626  0.0000
  O3     O3        0.637534613099860    0.136842744207768    0.105339493854403  0.0000
  O2     O2        0.870249235118016    0.870173511327546    0.092708498774893  0.0000
  O2     O2        0.367147161500346    0.163049953040840    0.885746541422786  0.0000
  O3     O3        0.140986877841139    0.930644209381228    0.879255090872515  0.0000
  O2     O2        0.409524684562695    0.824100760693625    0.897199518171622  0.0000
  O1     O1        0.073801842011996    0.261453028892328    0.862761439185447  0.0000
  O3     O3        0.587650821111980    0.784219364542486    0.099902761834148  0.0000
  O2     O2        0.913816405387432    0.209596049208104    0.078479257088880  0.0000
  O3     O3        0.492292695843326    0.076325331258740    0.006894080513330  0.0000
  O3     O3        0.998169417542667    0.954243736290152    0.979401790840799  0.0000
  O3     O3        0.127691382582301    0.563863522248270    0.286931394074451  0.0000
  O2     O2        0.359914682778152    0.493732426988242    0.298250905232076  0.0000
  O2     O2        0.854731312593306    0.535063941389872    0.673270545651812  0.0000
  O2     O2        0.629036156604394    0.490674729821486    0.688560104136900  0.0000
  O3     O3        0.237587557919658    0.285328042003420    0.321509806293834  0.0000
  O2     O2        0.255809962290587    0.752915398544658    0.310307003097487  0.0000
  O2     O2        0.751735129034416    0.275502026157068    0.673256835918479  0.0000
  O2     O2        0.731504875068989    0.749960088273176    0.672571109567948  0.0000
  O1     O1        0.127952896845108    0.290930490218137    0.110351780819572  0.0000
  O2     O2        0.366032005225558    0.752535743099801    0.128789357241600  0.0000
  O2     O2        0.867243212826019    0.284500338201170    0.847996573891134  0.0000
  O2     O2        0.630215727281434    0.737661962104055    0.864233319274214  0.0000
  O2     O2        0.837597119771460    0.777821207914432    0.854329568801012  0.0000
  O2     O2        0.651914371326805    0.229932176474775    0.860110137918527  0.0000
  O2     O2        0.157786168517172    0.821590242680007    0.121251114234514  0.0000
  O2     O2        0.319310094115731    0.263374485937711    0.117973948935765  0.0000
  O2     O2        0.631821324213675    0.471675164009884    0.032942062193309  0.0000
  O2     O2        0.869546659400076    0.533701267860270    0.026229704689769  0.0000
  O2     O2        0.371114944979294    0.498260481603739    0.953873042530606  0.0000
  O3     O3        0.120907409385593    0.594924003382636    0.945453391733632  0.0000
  O2     O2        0.763421058957845    0.283834886879787    0.032507671349281  0.0000
  O2     O2        0.737765339206929    0.723245860460163    0.044302523714295  0.0000
  O3     O3        0.236522616828022    0.331264968777524    0.911064536752196  0.0000
  O2     O2        0.260396129701452    0.736853921073864    0.943615100796295  0.0000
