data_c00897.vasp
_audit_creation_method             Generated by GULP
_audit_author_name                 Salvador R. G. Balestra
_symmetry_space_group_name_H-M     'P 1             '
_symmetry_Int_Tables_number        1

loop_
_symmetry_equiv_pos_site_id
_symmetry_equiv_pos_as_xyz
_cell_length_a                       17.1918
_cell_length_b                        7.5996
_cell_length_c                       10.2101
_cell_angle_alpha                   90.1389
_cell_angle_beta                    90.4892
_cell_angle_gamma                   89.4458

loop_
_atom_site_label
_atom_site_type_symbol
_atom_site_fract_x
_atom_site_fract_y
_atom_site_fract_z
_atom_site_charge
  Ge     Ge        0.556730000000016    0.000000000000000    0.122129999999970  0.0000
  Ge     Ge        0.168400590972018    0.270439180336288    0.299682957368797  0.0000
  Ge     Ge        0.334807927418868    0.733026518142611    0.298680051927968  0.0000
  Ge     Ge        0.334626097336062    0.716091959712763    0.981383941303554  0.0000
  Si     Si        0.047728831276970    0.989701500054609    0.380077321929730  0.0000
  Si     Si        0.453009606566480    0.015175498914381    0.381625649137576  0.0000
  Si     Si        0.949391830659959    0.991800433619895    0.637256003750262  0.0000
  Si     Si        0.553074643573622    0.021931289872810    0.638271164439310  0.0000
  Si     Si        0.948403368964545    0.994569842230764    0.121582341519844  0.0000
  Si     Si        0.446197159427796    0.998376354291639    0.880483793608652  0.0000
  Si     Si        0.058765118673326    0.984311873415679    0.881992419916611  0.0000
  Si     Si        0.836321315702035    0.288158038697159    0.731997308128238  0.0000
  Si     Si        0.667114937371799    0.725989398458631    0.741873542002811  0.0000
  Si     Si        0.845433765860283    0.691661000048143    0.734434806265266  0.0000
  Si     Si        0.657795129187201    0.319148074279129    0.734892136329047  0.0000
  Si     Si        0.152443566171010    0.684788937373572    0.293110776100124  0.0000
  Si     Si        0.347336828513992    0.325694659497876    0.306627509577381  0.0000
  Si     Si        0.655961044922597    0.318396794298240    0.039065421608581  0.0000
  Si     Si        0.853328888326054    0.678918655386334    0.040398329349447  0.0000
  Si     Si        0.349007884037775    0.314418173077883    0.994451433661116  0.0000
  Si     Si        0.150842374133753    0.668563788393095    0.987685144424867  0.0000
  Si     Si        0.170889088958672    0.264433842506473    0.986914832399438  0.0000
  Si     Si        0.674688345601538    0.717665203931876    0.046434716632607  0.0000
  Si     Si        0.835439011888505    0.282760138406144    0.038210605364607  0.0000
  O3     O3        0.111493141194082    0.140404591248925    0.395982302869129  0.0000
  O3     O3        0.385977198585087    0.873091350642476    0.400079087661778  0.0000
  O2     O2        0.889843038862614    0.155885561635851    0.649613941056460  0.0000
  O2     O2        0.611220884527974    0.857227597351576    0.661626912737472  0.0000
  O2     O2        0.902909097885031    0.810522161760884    0.651359623099397  0.0000
  O2     O2        0.599681154997344    0.204417472911136    0.646872750977532  0.0000
  O2     O2        0.090723868902584    0.800394742800338    0.374919105979964  0.0000
  O2     O2        0.415562399843504    0.210839522424423    0.374183916295850  0.0000
  O2     O2        0.985456248500130    0.994816678606755    0.494386789153770  0.0000
  O2     O2        0.518792931878593    0.006648481738516    0.493004023104521  0.0000
  O2     O2        0.002388352735170    0.027048396633108    0.245300792547528  0.0000
  O3     O3        0.492744286984259    0.969930814857679    0.244763813440498  0.0000
  O2     O2        0.020440928881204    0.002865810863046    0.739669740910879  0.0000
  O2     O2        0.480520810125358    0.026145684158623    0.736365883473161  0.0000
  O3     O3        0.595971590078930    0.208685186485845    0.121938219972442  0.0000
  O2     O2        0.912703269414380    0.798295501791241    0.123209788852931  0.0000
  O2     O2        0.414365323720471    0.182994681857064    0.940609695938512  0.0000
  O2     O2        0.090887282839355    0.785158523324073    0.900999825578699  0.0000
  O3     O3        0.378520791174895    0.857139509339735    0.873564112148702  0.0000
  O2     O2        0.127843321875405    0.126080330284597    0.892561744272460  0.0000
  O3     O3        0.633366664929672    0.852285670691330    0.140660508833491  0.0000
  O2     O2        0.878719885464131    0.137513256606782    0.125458051664185  0.0000
  O3     O3        0.513496262179882    0.934153416411081    0.977616253655536  0.0000
  O2     O2        0.995527193672866    0.031086711714271    0.990448555868616  0.0000
  O3     O3        0.153523852277352    0.487592508936095    0.344084738197239  0.0000
  O3     O3        0.348995846545741    0.522137445336495    0.359895145678582  0.0000
  O2     O2        0.862561471365718    0.487282656443084    0.702373268365081  0.0000
  O2     O2        0.639980032616172    0.526009528485053    0.714276783640109  0.0000
  O3     O3        0.266057250302811    0.229412358800279    0.329630583294135  0.0000
  O3     O3        0.235997495725575    0.775490163009291    0.305858406552144  0.0000
  O2     O2        0.745665038182062    0.270645581916952    0.692241422293677  0.0000
  O2     O2        0.756618054860523    0.743804948445290    0.696972840184723  0.0000
  O3     O3        0.148743303645757    0.230368963364920    0.136342022916267  0.0000
  O1     O1        0.362988450958433    0.759510168033575    0.139083947313100  0.0000
  O2     O2        0.845099941649844    0.240933913065639    0.884663165396814  0.0000
  O2     O2        0.662789808678875    0.774761679928802    0.894750945379290  0.0000
  O2     O2        0.861997863500906    0.726650815446246    0.887571855849336  0.0000
  O2     O2        0.643845907612474    0.267910342720924    0.886000622022027  0.0000
  O2     O2        0.127475625971420    0.684432428447300    0.139705595916562  0.0000
  O2     O2        0.359882786340995    0.342956373272725    0.149913479601188  0.0000
  O2     O2        0.638693884863897    0.523752171795878    0.063676625327466  0.0000
  O2     O2        0.872569701715034    0.474044453505132    0.067414171830731  0.0000
  O3     O3        0.357640512040741    0.503730413218524    0.931140204620661  0.0000
  O2     O2        0.147275715164870    0.463811019749646    0.945046532917461  0.0000
  O2     O2        0.745329614551631    0.276789742242130    0.077988250098006  0.0000
  O2     O2        0.765562712208173    0.717008879043381    0.083975551943277  0.0000
  O2     O2        0.263325227509653    0.235165343709783    0.967550544582237  0.0000
  O3     O3        0.235695883699605    0.744382902148196    0.968092431734848  0.0000
