data_c00850.vasp
_audit_creation_method             Generated by GULP
_audit_author_name                 Salvador R. G. Balestra
_symmetry_space_group_name_H-M     'P 1             '
_symmetry_Int_Tables_number        1

loop_
_symmetry_equiv_pos_site_id
_symmetry_equiv_pos_as_xyz
_cell_length_a                       16.9242
_cell_length_b                        7.5662
_cell_length_c                       10.3884
_cell_angle_alpha                   90.4851
_cell_angle_beta                    90.9872
_cell_angle_gamma                   90.5603

loop_
_atom_site_label
_atom_site_type_symbol
_atom_site_fract_x
_atom_site_fract_y
_atom_site_fract_z
_atom_site_charge
  Ge     Ge        0.556730000000016    0.000000000000000    0.122129999999970  0.0000
  Ge     Ge        0.436784343987380    0.991437765670109    0.880197554696483  0.0000
  Ge     Ge        0.831449164165946    0.753820471104186    0.033846319095949  0.0000
  Ge     Ge        0.862642229237121    0.345412990977845    0.039968808413391  0.0000
  Si     Si        0.051954417373326    0.002650864726612    0.394452087510293  0.0000
  Si     Si        0.452569294595081    0.995532084104528    0.377978206227148  0.0000
  Si     Si        0.948254310545875    0.002320738523718    0.645502201260518  0.0000
  Si     Si        0.547081685924406    0.979724646201723    0.638639983703133  0.0000
  Si     Si        0.945416373377842    0.024682554937675    0.145802226768362  0.0000
  Si     Si        0.047218560004572    0.990932121901810    0.904560570123735  0.0000
  Si     Si        0.151656654932454    0.311360821787828    0.304299238196315  0.0000
  Si     Si        0.348577772747403    0.683428331148183    0.293670068238860  0.0000
  Si     Si        0.848832198676597    0.311007486129518    0.737385603906763  0.0000
  Si     Si        0.649513375037087    0.673304666289327    0.734204363723052  0.0000
  Si     Si        0.829821483817255    0.721159446099904    0.729398794820300  0.0000
  Si     Si        0.668492685004499    0.268580796505723    0.742145544388808  0.0000
  Si     Si        0.166909419248945    0.716369060630623    0.302147314595522  0.0000
  Si     Si        0.334385413866948    0.275621400883591    0.295362364352242  0.0000
  Si     Si        0.677493854215563    0.280425823762489    0.042524599753138  0.0000
  Si     Si        0.323685120945628    0.268499186921878    0.997264583742910  0.0000
  Si     Si        0.161969472968694    0.710780776803047    0.001641515559638  0.0000
  Si     Si        0.344335867687290    0.671515759114363    0.995013342182278  0.0000
  Si     Si        0.140925713200366    0.311008199167983    0.006466403874952  0.0000
  Si     Si        0.647628343647870    0.672950751876462    0.034868135824979  0.0000
  O2     O2        0.095636544943000    0.193409329078170    0.393291834425688  0.0000
  O2     O2        0.410692148414289    0.802158236515338    0.375673007885242  0.0000
  O2     O2        0.907259218022773    0.194642516617176    0.649641945927188  0.0000
  O2     O2        0.585662825685961    0.785668873695581    0.653788234974067  0.0000
  O2     O2        0.881237359759895    0.848248044362328    0.638132479065038  0.0000
  O2     O2        0.614519229557084    0.127345379214642    0.665845836840850  0.0000
  O2     O2        0.118037447527996    0.850446951656159    0.389728338832089  0.0000
  O2     O2        0.384874580809686    0.146269391689873    0.386083206655314  0.0000
  O2     O2        0.001703984828351    0.987509961207254    0.521348878645635  0.0000
  O2     O2        0.514878499663421    0.004058622666585    0.494525291924501  0.0000
  O2     O2        0.992963235105901    0.975973204527851    0.273634555569339  0.0000
  O3     O3        0.500382259737285    0.038025976397908    0.252294098491229  0.0000
  O2     O2        0.005487413549830    0.970705398426410    0.767332470811623  0.0000
  O3     O3        0.471692262415554    0.000672466761366    0.726906032294573  0.0000
  O3     O3        0.640417866060066    0.132819907012111    0.130470310091933  0.0000
  O3     O3        0.862188621685642    0.922442562425662    0.135508318226522  0.0000
  O3     O3        0.357366726151243    0.131128292950081    0.898363612905975  0.0000
  O2     O2        0.118315599420449    0.851361838987999    0.912095133890277  0.0000
  O3     O3        0.403807282493425    0.777729117958871    0.908741480657966  0.0000
  O2     O2        0.080402143189398    0.191355758401731    0.922254448136846  0.0000
  O3     O3        0.583712248496016    0.780604047575850    0.112664282438591  0.0000
  O3     O3        0.929994996293736    0.231491449623444    0.134080193224944  0.0000
  O1     O1        0.507794785818123    0.062106223846330    0.985310136827005  0.0000
  O2     O2        0.987439624124200    0.943913979534529    0.018095991358174  0.0000
  O2     O2        0.137623607576940    0.517778490697557    0.332998556703799  0.0000
  O2     O2        0.364387160449640    0.476958379608228    0.318517485764845  0.0000
  O2     O2        0.863455627336780    0.521706044421778    0.722166301467939  0.0000
  O2     O2        0.633003121174834    0.463612899650266    0.716891739140610  0.0000
  O2     O2        0.242515736137533    0.261675602453688    0.332347157421316  0.0000
  O2     O2        0.260028940270922    0.733535672574872    0.335360064562818  0.0000
  O2     O2        0.758704586295012    0.263085641608902    0.693885323553651  0.0000
  O2     O2        0.737521057169369    0.718900222713922    0.685325749564031  0.0000
  O2     O2        0.127563578812492    0.267040315524946    0.156382112192702  0.0000
  O2     O2        0.361488679487331    0.727955010293173    0.143854609118596  0.0000
  O3     O3        0.867419791879795    0.263082838680283    0.883933678003730  0.0000
  O2     O2        0.640223258824952    0.726913085669332    0.883614695426212  0.0000
  O3     O3        0.834675244222100    0.801267128479318    0.871791801331327  0.0000
  O2     O2        0.671455602820604    0.219584421137977    0.892360889244371  0.0000
  O2     O2        0.153600892655494    0.761683976731974    0.151965996057025  0.0000
  O2     O2        0.343114612225203    0.217244449555707    0.145941847988392  0.0000
  O2     O2        0.630235321583479    0.465243409090634    0.054119569199843  0.0000
  O1     O1        0.884325048229794    0.563298547225229    0.055310464606433  0.0000
  O2     O2        0.359271607417027    0.463936186415233    0.973886128623296  0.0000
  O2     O2        0.123535091848757    0.516241755372673    0.977712274560166  0.0000
  O3     O3        0.766731140756131    0.311947454760113    0.087560677129301  0.0000
  O3     O3        0.735578267126865    0.719260791133563    0.081115690171395  0.0000
  O2     O2        0.229998253691190    0.267824589420467    0.971544448574529  0.0000
  O2     O2        0.253090858731148    0.714243275187839    0.961567970514477  0.0000
