data_c00811.vasp
_audit_creation_method             Generated by GULP
_audit_author_name                 Salvador R. G. Balestra
_symmetry_space_group_name_H-M     'P 1             '
_symmetry_Int_Tables_number        1

loop_
_symmetry_equiv_pos_site_id
_symmetry_equiv_pos_as_xyz
_cell_length_a                       16.8201
_cell_length_b                        7.6234
_cell_length_c                       10.5153
_cell_angle_alpha                   92.3411
_cell_angle_beta                    89.9980
_cell_angle_gamma                   90.0016

loop_
_atom_site_label
_atom_site_type_symbol
_atom_site_fract_x
_atom_site_fract_y
_atom_site_fract_z
_atom_site_charge
  Ge     Ge        0.556730000000016    0.000000000000000    0.122129999999970  0.0000
  Ge     Ge        0.935383345849882    0.000015589864239    0.122176113282109  0.0000
  Ge     Ge        0.650919763590642    0.325317053635349    0.027840077701462  0.0000
  Ge     Ge        0.841169020027130    0.325275534732226    0.027854778987767  0.0000
  Si     Si        0.043660958619951    0.968379114350486    0.369687453452470  0.0000
  Si     Si        0.448453063149515    0.968471461403053    0.369671082106230  0.0000
  Si     Si        0.948266950042897    0.963149816227416    0.627977153144950  0.0000
  Si     Si        0.543877456130514    0.963134770306138    0.627934377556330  0.0000
  Si     Si        0.442716007686901    0.938552198934201    0.879186852775908  0.0000
  Si     Si        0.049447974501868    0.938471578741387    0.879215866933490  0.0000
  Si     Si        0.153795959040203    0.262459366367540    0.274148262032507  0.0000
  Si     Si        0.338384035649930    0.667922638410729    0.271455746196559  0.0000
  Si     Si        0.837662104919975    0.269618275358783    0.724530935730033  0.0000
  Si     Si        0.653758469133199    0.674847457015521    0.703156198036407  0.0000
  Si     Si        0.838391756768508    0.674830306655731    0.703174623411198  0.0000
  Si     Si        0.654463454476275    0.269636937349828    0.724520407578155  0.0000
  Si     Si        0.153673014588128    0.667751100532025    0.271433963967138  0.0000
  Si     Si        0.338391213454395    0.262626100525871    0.274172453718272  0.0000
  Si     Si        0.837817659584359    0.710434474106676    0.992207021418440  0.0000
  Si     Si        0.338693392136299    0.247210018503839    0.978773010665574  0.0000
  Si     Si        0.153319528547891    0.646960541624548    0.976359352988338  0.0000
  Si     Si        0.338757970455875    0.647167997878223    0.976383752369862  0.0000
  Si     Si        0.153557884013144    0.247009546907242    0.978743118623684  0.0000
  Si     Si        0.654298002708877    0.710474988800671    0.992190440946190  0.0000
  O2     O2        0.096868508468700    0.143323700458211    0.356109053677732  0.0000
  O2     O2        0.392022173903336    0.797314094055143    0.358528028716126  0.0000
  O2     O2        0.894198820278211    0.136847120455702    0.643726580740010  0.0000
  O2     O2        0.600039381927722    0.790271049497637    0.610521938206323  0.0000
  O2     O2        0.892123887038648    0.790252092773136    0.610548939215047  0.0000
  O2     O2        0.597925394472316    0.136861586994264    0.643724922094863  0.0000
  O2     O2        0.099981332049055    0.797057348099364    0.358483692456919  0.0000
  O2     O2        0.395344238825568    0.143569141046815    0.356146265272736  0.0000
  O2     O2        0.002950116815865    0.979869752370355    0.505857852880659  0.0000
  O2     O2        0.489232974714442    0.979859347060814    0.505779570060380  0.0000
  O3     O3        0.974668278777731    0.953982052774976    0.266293700409119  0.0000
  O3     O3        0.517396796563548    0.953858784251180    0.266192122558861  0.0000
  O2     O2        0.007273664094047    0.941973732965520    0.744971844762624  0.0000
  O2     O2        0.484819827146414    0.941874767980845    0.744865741792978  0.0000
  O1     O1        0.585122867718126    0.211737701838014    0.119001221356935  0.0000
  O3     O3        0.850446278471371    0.872322631645212    0.088315174477199  0.0000
  O2     O2        0.391806960830274    0.117883158337720    0.892647616911318  0.0000
  O2     O2        0.106624045858301    0.767977082875153    0.881271353195470  0.0000
  O2     O2        0.385384757592468    0.768313239505132    0.881296184001742  0.0000
  O2     O2        0.100543049664928    0.117550536912695    0.892566257837186  0.0000
  O3     O3        0.641692783662032    0.872362735413865    0.088307265637990  0.0000
  O1     O1        0.906949591830979    0.211727535077141    0.119039922977736  0.0000
  O3     O3        0.500155936039240    0.920718602429780    0.996664222640991  0.0000
  O3     O3        0.992060008340605    0.920918966071948    0.996791830820597  0.0000
  O2     O2        0.134136960252639    0.466890005328064    0.303289458538532  0.0000
  O2     O2        0.357982197611862    0.467089788678066    0.303307627570189  0.0000
  O2     O2        0.861230195752290    0.469409526787618    0.691996530748891  0.0000
  O2     O2        0.630909608122067    0.469428679514562    0.691974790839396  0.0000
  O2     O2        0.246098002031961    0.224700969820068    0.304529982426740  0.0000
  O2     O2        0.246020521751370    0.707581430401128    0.300110671203333  0.0000
  O2     O2        0.746063305997090    0.234547012587327    0.684039512319026  0.0000
  O2     O2        0.746078059279318    0.700350726073284    0.667148928412738  0.0000
  O2     O2        0.135275821083369    0.211074094320380    0.126482759553325  0.0000
  O2     O2        0.357272166375665    0.701361619855210    0.123857265424575  0.0000
  O3     O3        0.847500458349159    0.238898800288615    0.872498754671103  0.0000
  O2     O2        0.634626144086044    0.753644769198164    0.845423843613460  0.0000
  O2     O2        0.857516593307825    0.753617059540258    0.845448541149735  0.0000
  O3     O3        0.644603881039571    0.238928800310069    0.872486624085373  0.0000
  O2     O2        0.134782270029262    0.701123189421677    0.123831068457297  0.0000
  O2     O2        0.356957143935705    0.211266573887660    0.126515147560739  0.0000
  O3     O3        0.610882579713537    0.534969465738464    0.034203275684477  0.0000
  O3     O3        0.881218645751437    0.534926654584888    0.034219369297986  0.0000
  O2     O2        0.363377986469886    0.444938212483875    0.948650854798144  0.0000
  O2     O2        0.128790025858589    0.444682268693786    0.948609496492660  0.0000
  O1     O1        0.746039868095268    0.298541693182430    0.082066881809170  0.0000
  O2     O2        0.746054996772209    0.639556512485160    0.990490121891582  0.0000
  O2     O2        0.246134424839408    0.214086837987816    0.949910234762296  0.0000
  O2     O2        0.246035973061975    0.671228854935469    0.950047917943849  0.0000
