data_c00890.vasp
_audit_creation_method             Generated by GULP
_audit_author_name                 Salvador R. G. Balestra
_symmetry_space_group_name_H-M     'P 1             '
_symmetry_Int_Tables_number        1

loop_
_symmetry_equiv_pos_site_id
_symmetry_equiv_pos_as_xyz
_cell_length_a                       17.1409
_cell_length_b                        7.6154
_cell_length_c                       10.3149
_cell_angle_alpha                   89.5462
_cell_angle_beta                    89.9848
_cell_angle_gamma                   89.3041

loop_
_atom_site_label
_atom_site_type_symbol
_atom_site_fract_x
_atom_site_fract_y
_atom_site_fract_z
_atom_site_charge
  Ge     Ge        0.556730000000016    0.000000000000000    0.122129999999970  0.0000
  Ge     Ge        0.146439829447243    0.319587475203195    0.267826234751522  0.0000
  Ge     Ge        0.346959426113988    0.680336446620266    0.272798719440445  0.0000
  Ge     Ge        0.663311086908333    0.291549664901366    0.705095146402621  0.0000
  Si     Si        0.042650675735452    0.013039558012295    0.355858257412584  0.0000
  Si     Si        0.449126373018139    0.984959444414999    0.370645587080303  0.0000
  Si     Si        0.949657739924453    0.011721049673468    0.618670296408748  0.0000
  Si     Si        0.543607950780565    0.010113713340680    0.627217183504500  0.0000
  Si     Si        0.942596991837874    0.005334620601047    0.101154405484951  0.0000
  Si     Si        0.441185021362167    0.003429673287189    0.881292187717832  0.0000
  Si     Si        0.057442190114514    0.013196518489709    0.865721362735729  0.0000
  Si     Si        0.846504808554521    0.322365340286849    0.700122544842646  0.0000
  Si     Si        0.651949485676446    0.706494927994954    0.708575763555061  0.0000
  Si     Si        0.832310590680382    0.725889829034862    0.705818594532470  0.0000
  Si     Si        0.163515254251917    0.728888152224790    0.267601736741341  0.0000
  Si     Si        0.329013562693739    0.272118154172461    0.267967796293176  0.0000
  Si     Si        0.669022964964164    0.282597214323644    0.009349366688754  0.0000
  Si     Si        0.831949131723000    0.719041774299276    0.008972592062694  0.0000
  Si     Si        0.327424604632873    0.289646095800637    0.961799602334435  0.0000
  Si     Si        0.168487300236913    0.725298963291841    0.963047243065323  0.0000
  Si     Si        0.348437071618994    0.685805998499263    0.964526189852748  0.0000
  Si     Si        0.148475670084522    0.327359009512890    0.959700853018425  0.0000
  Si     Si        0.652441518880435    0.687092674599564    0.008237630429087  0.0000
  Si     Si        0.848425798690443    0.322844000499907    0.004564398887202  0.0000
  O3     O3        0.078980304563637    0.204561120252641    0.355853801298381  0.0000
  O3     O3        0.414811398093328    0.791515261344974    0.360913185255673  0.0000
  O2     O2        0.908888551107588    0.204275031132901    0.621659945107295  0.0000
  O2     O2        0.594402821374928    0.829670566229023    0.624306745550154  0.0000
  O2     O2        0.883078308717338    0.864641045077961    0.626671064182952  0.0000
  O3     O3        0.603380698882123    0.167845670895247    0.610328680069276  0.0000
  O2     O2        0.114438748779503    0.875159274832800    0.344190619084474  0.0000
  O2     O2        0.378201138307343    0.118973355916182    0.337753058588175  0.0000
  O2     O2        0.995150483638322    0.981637017317343    0.486381380133842  0.0000
  O2     O2        0.479054104353863    0.014269364485425    0.515917642517687  0.0000
  O2     O2        0.983160412919780    0.985969510692911    0.238516324324809  0.0000
  O3     O3        0.521936737439090    0.013517571949500    0.276993045809695  0.0000
  O2     O2        0.012019558400969    0.989662947287581    0.732935274482633  0.0000
  O2     O2        0.498779894331503    0.030578578368985    0.762608767541150  0.0000
  O3     O3        0.628225847045279    0.156301883273231    0.110019759246210  0.0000
  O2     O2        0.875205041226524    0.860426716471690    0.095794700425197  0.0000
  O2     O2        0.370963725618446    0.147151635447133    0.873588368683142  0.0000
  O2     O2        0.127388066745142    0.869896184363713    0.871760212681496  0.0000
  O2     O2        0.406343805162559    0.806275600251493    0.878986165824869  0.0000
  O2     O2        0.091487945562878    0.210381116488015    0.871461348252502  0.0000
  O3     O3        0.594341290987827    0.790820499383198    0.099600066268230  0.0000
  O2     O2        0.906865687760162    0.201355969010382    0.087606203454472  0.0000
  O3     O3        0.484146685499440    0.047135088611789    0.013828886087378  0.0000
  O2     O2        0.002543877862435    0.967783669734418    0.986292390987900  0.0000
  O3     O3        0.127659672123590    0.539165635223087    0.291645707074842  0.0000
  O3     O3        0.365420747952271    0.459751727732430    0.297303973142390  0.0000
  O2     O2        0.861458582694300    0.528713255992820    0.672942586912754  0.0000
  O3     O3        0.632867395307556    0.506350539127174    0.684824920617273  0.0000
  O3     O3        0.240430199715791    0.269016936882587    0.316451038913872  0.0000
  O3     O3        0.252230928374596    0.729228879139765    0.316282277975053  0.0000
  O3     O3        0.759799840672134    0.275019916162468    0.658022784099392  0.0000
  O2     O2        0.741404674114277    0.746678249896545    0.667473793706926  0.0000
  O3     O3        0.135049758601567    0.267295603587253    0.106543293309316  0.0000
  O3     O3        0.362568683427050    0.736702642574322    0.112481055770984  0.0000
  O2     O2        0.858421005796915    0.281304736628210    0.852729134306653  0.0000
  O2     O2        0.639917295480718    0.753584023637487    0.860286760892169  0.0000
  O2     O2        0.841428480019992    0.766488407117247    0.857765832389542  0.0000
  O3     O3        0.656447068796937    0.217782168855783    0.863375606779297  0.0000
  O2     O2        0.162790417214239    0.774997318934619    0.114026440046187  0.0000
  O2     O2        0.329361433437653    0.239313889691380    0.113329396530034  0.0000
  O2     O2        0.634530499626343    0.480803256762266    0.017685524655070  0.0000
  O2     O2        0.868308426958007    0.524924674698070    0.034955011431014  0.0000
  O2     O2        0.367557275462515    0.479882998821186    0.941453744113200  0.0000
  O2     O2        0.129289101511595    0.534868104011287    0.941393898411593  0.0000
  O2     O2        0.760321355432536    0.283356810777689    0.045173552544885  0.0000
  O2     O2        0.741529149263886    0.723731074430461    0.049545035753324  0.0000
  O2     O2        0.237802746894119    0.295319750657938    0.916410874028522  0.0000
  O2     O2        0.259051933575735    0.721391404767527    0.923259472542088  0.0000
