data_c00802.vasp
_audit_creation_method             Generated by GULP
_audit_author_name                 Salvador R. G. Balestra
_symmetry_space_group_name_H-M     'P 1             '
_symmetry_Int_Tables_number        1

loop_
_symmetry_equiv_pos_site_id
_symmetry_equiv_pos_as_xyz
_cell_length_a                       16.9240
_cell_length_b                        7.5938
_cell_length_c                       10.4422
_cell_angle_alpha                   89.5365
_cell_angle_beta                    90.5632
_cell_angle_gamma                   89.8259

loop_
_atom_site_label
_atom_site_type_symbol
_atom_site_fract_x
_atom_site_fract_y
_atom_site_fract_z
_atom_site_charge
  Ge     Ge        0.556730000000016    0.000000000000000    0.122129999999970  0.0000
  Ge     Ge        0.944009974942300    0.980993455470141    0.121372504023383  0.0000
  Ge     Ge        0.826803260986219    0.263628504844515    0.712727607027745  0.0000
  Ge     Ge        0.164981059185126    0.270716825250747    0.973423923593439  0.0000
  Si     Si        0.048927510817490    0.980025014802860    0.376694584622306  0.0000
  Si     Si        0.448829352196849    0.996232964921669    0.371951875055480  0.0000
  Si     Si        0.947212928681991    0.981001551852383    0.626542545015161  0.0000
  Si     Si        0.540642641203151    0.006909045247170    0.636388498706707  0.0000
  Si     Si        0.440180915072243    0.993842711461464    0.886333422783965  0.0000
  Si     Si        0.051607675700319    0.993506454914890    0.878730078241167  0.0000
  Si     Si        0.164279949588469    0.267411611878929    0.277780652386995  0.0000
  Si     Si        0.331950532545215    0.709763289690472    0.278104508435133  0.0000
  Si     Si        0.662172464320541    0.721973541894564    0.721566845541886  0.0000
  Si     Si        0.844451061918973    0.676010844945409    0.711611443064990  0.0000
  Si     Si        0.641744010769901    0.317279012767964    0.720126979261024  0.0000
  Si     Si        0.149656550173854    0.675699057643442    0.276410080920925  0.0000
  Si     Si        0.345068157287348    0.306480880450487    0.278987053692987  0.0000
  Si     Si        0.644880764455476    0.325622529256594    0.018769873572374  0.0000
  Si     Si        0.853901512665678    0.660420827739840    0.008371643676127  0.0000
  Si     Si        0.349431572226527    0.316183743346167    0.977970605191805  0.0000
  Si     Si        0.143346843514615    0.674535030444342    0.980445829462619  0.0000
  Si     Si        0.328063700023042    0.712271584839218    0.979980309034068  0.0000
  Si     Si        0.672737276607762    0.721616995900200    0.019427211608082  0.0000
  Si     Si        0.826399771069051    0.259849857567912    0.014938512368005  0.0000
  O2     O2        0.112444017555760    0.137557281241190    0.364764864179294  0.0000
  O2     O2        0.382286279684231    0.844698277311082    0.362208164565825  0.0000
  O3     O3        0.881871936433959    0.132429011740585    0.614021843614932  0.0000
  O2     O2        0.611096290063253    0.862708969798251    0.640356754948123  0.0000
  O2     O2        0.901467161982416    0.794749371331177    0.624353305083238  0.0000
  O2     O2        0.577374510651353    0.202884543763580    0.642172280909726  0.0000
  O2     O2        0.091870574013810    0.790501179554024    0.363110235879172  0.0000
  O2     O2        0.407619035238778    0.187270762278205    0.356203446515520  0.0000
  O2     O2        0.011533595990395    0.987955342597038    0.516289640921975  0.0000
  O2     O2        0.490479573130996    0.984565599501290    0.508561394288532  0.0000
  O3     O3        0.979381514297267    0.000901107418165    0.274248061971440  0.0000
  O3     O3        0.515684374431962    0.967441695758966    0.268403694778474  0.0000
  O2     O2        0.992704450118428    0.008280686043514    0.760345948988873  0.0000
  O2     O2        0.480466460378304    0.973197112457593    0.750793943470006  0.0000
  O3     O3        0.585061780915961    0.217291327614248    0.104678340926167  0.0000
  O3     O3        0.916479382553154    0.765422722731085    0.092156025183819  0.0000
  O2     O2        0.413497877202427    0.197064977801368    0.905830081397378  0.0000
  O2     O2        0.086718899632939    0.795633033859375    0.892806518072503  0.0000
  O2     O2        0.364533845162343    0.863291040421468    0.890908566161146  0.0000
  O3     O3        0.123292744350689    0.128700032766961    0.866168880258364  0.0000
  O3     O3        0.638911274599572    0.865243674238972    0.112428982844100  0.0000
  O3     O3        0.864181909308133    0.122870039527498    0.112492623359258  0.0000
  O3     O3        0.496408311337996    0.930238072998344    0.000183079129776  0.0000
  O3     O3        0.009680972019951    0.053656212462267    0.008638995436235  0.0000
  O2     O2        0.133837767929400    0.468120867875704    0.295654110007446  0.0000
  O2     O2        0.362387126037518    0.511370673215750    0.306705733119152  0.0000
  O3     O3        0.860769152332211    0.474472093552647    0.685572254256792  0.0000
  O2     O2        0.628451618367773    0.526132028766475    0.696436932348171  0.0000
  O2     O2        0.256274840616319    0.256997472160282    0.320618502917662  0.0000
  O2     O2        0.239710434245917    0.722850406114018    0.313476442142393  0.0000
  O3     O3        0.727648323393275    0.261319685282330    0.673529530548812  0.0000
  O2     O2        0.753384261523933    0.727941585299541    0.678215932263994  0.0000
  O3     O3        0.156628334469628    0.207401783597317    0.132018017479624  0.0000
  O2     O2        0.341555010236958    0.760428691288381    0.128953892928104  0.0000
  O3     O3        0.835995095926677    0.194620091938329    0.869730014845259  0.0000
  O2     O2        0.658376855697703    0.774821304282257    0.870523925438358  0.0000
  O2     O2        0.863333042469265    0.719187150712062    0.860266356231480  0.0000
  O2     O2        0.630470917605652    0.273693465122204    0.870384118238716  0.0000
  O2     O2        0.130436023263578    0.728394301519304    0.128988647322247  0.0000
  O2     O2        0.355449182046376    0.268200889108158    0.128808596010497  0.0000
  O2     O2        0.630990291563511    0.532477761317690    0.042185691560368  0.0000
  O2     O2        0.868374473235109    0.451555420485544    0.023082493442121  0.0000
  O2     O2        0.368454720431462    0.522579269219117    0.953516992314881  0.0000
  O3     O3        0.120946229440762    0.475321953084097    0.956933543311246  0.0000
  O2     O2        0.734996450739933    0.276670428982199    0.053140915302349  0.0000
  O2     O2        0.765537924783772    0.707787194561039    0.051840063255372  0.0000
  O3     O3        0.262385919630346    0.276863790514350    0.928936083493874  0.0000
  O2     O2        0.235333624688123    0.702444498671719    0.947369012086333  0.0000
