data_c00831.vasp
_audit_creation_method             Generated by GULP
_audit_author_name                 Salvador R. G. Balestra
_symmetry_space_group_name_H-M     'P 1             '
_symmetry_Int_Tables_number        1

loop_
_symmetry_equiv_pos_site_id
_symmetry_equiv_pos_as_xyz
_cell_length_a                       17.1259
_cell_length_b                        7.5976
_cell_length_c                       10.3078
_cell_angle_alpha                   89.0772
_cell_angle_beta                    90.1132
_cell_angle_gamma                   89.6546

loop_
_atom_site_label
_atom_site_type_symbol
_atom_site_fract_x
_atom_site_fract_y
_atom_site_fract_z
_atom_site_charge
  Ge     Ge        0.556730000000016    0.000000000000000    0.122129999999970  0.0000
  Ge     Ge        0.441526392495250    0.005712518824570    0.874740451382060  0.0000
  Ge     Ge        0.331531250406768    0.716507910507538    0.296177724515029  0.0000
  Ge     Ge        0.652506219771751    0.328978789244682    0.728438347945717  0.0000
  Si     Si        0.046836944712975    0.985161217143607    0.377878278493873  0.0000
  Si     Si        0.450466725612827    0.994670219764058    0.377843435329531  0.0000
  Si     Si        0.952811572007351    0.001661859247652    0.641241146171609  0.0000
  Si     Si        0.549675605301524    0.025983813897716    0.628140649541431  0.0000
  Si     Si        0.943764433582945    0.990468871314671    0.126184216421170  0.0000
  Si     Si        0.057531966479547    0.996662674875072    0.891344798980292  0.0000
  Si     Si        0.165172380534172    0.270972995493062    0.291133508834971  0.0000
  Si     Si        0.835386893347595    0.291544596245373    0.724975645509996  0.0000
  Si     Si        0.669025024744681    0.742994186304328    0.739511909994477  0.0000
  Si     Si        0.848401968649175    0.695869926322120    0.732194610600116  0.0000
  Si     Si        0.147848681127395    0.674917698248418    0.295127822856860  0.0000
  Si     Si        0.345801805003541    0.301753162244783    0.293397632606267  0.0000
  Si     Si        0.651396592555159    0.321706308059484    0.035036139916522  0.0000
  Si     Si        0.853705131747841    0.673260354495237    0.034553428560934  0.0000
  Si     Si        0.348057011395536    0.320309088382976    0.992779468667511  0.0000
  Si     Si        0.148122938565068    0.676292824205186    0.991409638826735  0.0000
  Si     Si        0.328210742598865    0.724701010755735    0.990606524791023  0.0000
  Si     Si        0.168147384589123    0.279705263150846    0.987693905585803  0.0000
  Si     Si        0.674529076534194    0.721026756531386    0.041047326484418  0.0000
  Si     Si        0.832105336171444    0.278307391964453    0.029731887134807  0.0000
  O2     O2        0.115422065072690    0.129830718814802    0.372131407741592  0.0000
  O3     O3        0.386923616939927    0.842763904715839    0.397605339542654  0.0000
  O2     O2        0.891322304481319    0.162764120144247    0.645410395891009  0.0000
  O2     O2        0.620678981579851    0.891508932902290    0.661615534432517  0.0000
  O2     O2        0.906883679923254    0.817531828157605    0.650193929881204  0.0000
  O3     O3        0.584630313514655    0.219979228098320    0.637250382817321  0.0000
  O2     O2        0.085234616797878    0.790497933418953    0.373932131828780  0.0000
  O2     O2        0.404046130395022    0.181168419061949    0.379221629612565  0.0000
  O2     O2        0.999049684413398    0.009183097843658    0.508068427537833  0.0000
  O2     O2        0.519485445114945    0.992887499324366    0.482775351024512  0.0000
  O2     O2        0.986707604007547    0.016338714742922    0.260922934450909  0.0000
  O3     O3        0.490119365792159    0.961172099979158    0.240437065698150  0.0000
  O2     O2        0.015989759779205    0.019021519208380    0.754406308184973  0.0000
  O3     O3        0.474939789467466    0.999034011961562    0.718250787966263  0.0000
  O3     O3        0.594090814956431    0.211411949373420    0.126130111150054  0.0000
  O2     O2        0.912816555594007    0.790104645135897    0.117870825233702  0.0000
  O3     O3        0.408071054787104    0.217209603428549    0.905560439517475  0.0000
  O2     O2        0.090686213161487    0.798010162777768    0.905404584845788  0.0000
  O3     O3        0.366736445652477    0.855456629042084    0.889057980876875  0.0000
  O2     O2        0.127435699383341    0.137369184981914    0.897612601063833  0.0000
  O3     O3        0.634224170056259    0.852436201976770    0.137019623781653  0.0000
  O2     O2        0.871692923165350    0.127119639892002    0.117579314155978  0.0000
  O1     O1        0.514821577870649    0.949376349973979    0.977407883953146  0.0000
  O2     O2        0.999420026009666    0.040781532558054    0.007318227387699  0.0000
  O2     O2        0.134771030122823    0.467194687069626    0.322891762217318  0.0000
  O3     O3        0.363249701572657    0.502477032915969    0.319002148762447  0.0000
  O2     O2        0.863816950914632    0.492008877087259    0.700478071551717  0.0000
  O3     O3        0.635371267738509    0.552190800250776    0.710899226029588  0.0000
  O2     O2        0.256235818653233    0.254544837750516    0.330213595768176  0.0000
  O3     O3        0.234113062195060    0.727889148443589    0.336940354103823  0.0000
  O3     O3        0.746333010703246    0.277515963641110    0.680321959963209  0.0000
  O2     O2        0.759594207552239    0.748093581805322    0.695215201114518  0.0000
  O2     O2        0.156874119593871    0.230162346722648    0.138922249271532  0.0000
  O3     O3        0.341597127502936    0.787655196987719    0.136937077066915  0.0000
  O2     O2        0.839206876312351    0.238504008169591    0.877269788661963  0.0000
  O2     O2        0.664981289531758    0.787105539259092    0.891782534147803  0.0000
  O2     O2        0.864149014526764    0.728268433300163    0.884022243014554  0.0000
  O3     O3        0.635316999425858    0.265855072520400    0.887498466554931  0.0000
  O2     O2        0.134577320060858    0.716383056187111    0.142535861492761  0.0000
  O2     O2        0.361032234829071    0.257634002897592    0.142136072006645  0.0000
  O2     O2        0.635081694328389    0.528545527677503    0.052908377806540  0.0000
  O2     O2        0.872503057272033    0.466620377982444    0.057807096933893  0.0000
  O2     O2        0.364394623709253    0.528086539230546    0.980184445017232  0.0000
  O2     O2        0.130744942422243    0.472865674146340    0.960177729064902  0.0000
  O2     O2        0.741730710537619    0.280971588983749    0.069166780168089  0.0000
  O2     O2        0.765517069263790    0.709679717594426    0.078509697827766  0.0000
  O2     O2        0.259272658402354    0.278668324897222    0.951207629955131  0.0000
  O2     O2        0.236797719029769    0.719714303327151    0.956536514423485  0.0000
