data_c00825.vasp
_audit_creation_method             Generated by GULP
_audit_author_name                 Salvador R. G. Balestra
_symmetry_space_group_name_H-M     'P 1             '
_symmetry_Int_Tables_number        1

loop_
_symmetry_equiv_pos_site_id
_symmetry_equiv_pos_as_xyz
_cell_length_a                       16.9750
_cell_length_b                        7.5956
_cell_length_c                       10.3435
_cell_angle_alpha                   90.8180
_cell_angle_beta                    90.6348
_cell_angle_gamma                   89.3288

loop_
_atom_site_label
_atom_site_type_symbol
_atom_site_fract_x
_atom_site_fract_y
_atom_site_fract_z
_atom_site_charge
  Ge     Ge        0.556730000000016    0.000000000000000    0.122129999999970  0.0000
  Ge     Ge        0.436403393222668    0.980217326894377    0.881798318617710  0.0000
  Ge     Ge        0.142476212878510    0.324457811160331    0.295836356540456  0.0000
  Ge     Ge        0.167738212019058    0.720477733166696    0.979182575930261  0.0000
  Si     Si        0.043763429490309    0.014293940119646    0.380671297490169  0.0000
  Si     Si        0.446936101349053    0.991475364632063    0.373491491049041  0.0000
  Si     Si        0.942245644004971    0.996821707983698    0.632209962500366  0.0000
  Si     Si        0.540923601221308    0.989825801512663    0.635065724896527  0.0000
  Si     Si        0.949628139803860    0.995321254515365    0.116872805785468  0.0000
  Si     Si        0.056043505983959    0.002032658534379    0.877676596323952  0.0000
  Si     Si        0.344826076290351    0.679136297293763    0.289666297999970  0.0000
  Si     Si        0.839421370399330    0.306179879842265    0.716774474512248  0.0000
  Si     Si        0.646819265140465    0.685640727763507    0.737401393367785  0.0000
  Si     Si        0.828079299122000    0.710048103724690    0.722681775978889  0.0000
  Si     Si        0.659015170406997    0.277465363016862    0.735004266784909  0.0000
  Si     Si        0.164744680666673    0.736726954801008    0.285597757322519  0.0000
  Si     Si        0.327762915224255    0.277402782297576    0.301008614271118  0.0000
  Si     Si        0.673401850284519    0.276886580182087    0.035078977039394  0.0000
  Si     Si        0.835695446870439    0.710585830035850    0.024396455453423  0.0000
  Si     Si        0.322041603011505    0.263378623831015    0.999360235100349  0.0000
  Si     Si        0.350792422178166    0.654565191533538    0.986807511347124  0.0000
  Si     Si        0.138099431139843    0.321533809653477    0.992968747699488  0.0000
  Si     Si        0.653772008805606    0.677436945288558    0.036941800159242  0.0000
  Si     Si        0.854075216908484    0.312711999155195    0.018313495055537  0.0000
  O3     O3        0.077469446500176    0.209717112539639    0.389122240253064  0.0000
  O2     O2        0.406132162762810    0.800228050996950    0.368876710343738  0.0000
  O2     O2        0.895887865477245    0.183853259748708    0.629020876098994  0.0000
  O2     O2        0.584762620748039    0.802415703025140    0.657659520412459  0.0000
  O2     O2        0.878409600041763    0.841533794075691    0.637736419997009  0.0000
  O2     O2        0.602307681019953    0.148574389941965    0.655001071132119  0.0000
  O2     O2        0.118966618214297    0.882126728392045    0.371961203485408  0.0000
  O2     O2        0.379956072988216    0.144381312558366    0.387430457769173  0.0000
  O2     O2        0.992556043642045    0.970957389383199    0.504448422752843  0.0000
  O2     O2        0.509897460304956    0.996290480018563    0.488966698903303  0.0000
  O2     O2        0.987892478395830    0.984636091603870    0.256801409154689  0.0000
  O3     O3        0.493097411580284    0.032578935198826    0.245082851404197  0.0000
  O2     O2        0.001329843090220    0.988289629838377    0.752893503259191  0.0000
  O3     O3        0.465548762494421    0.006889924996534    0.724933360442018  0.0000
  O3     O3        0.634738291369435    0.145022235397929    0.130817612545621  0.0000
  O2     O2        0.879425603111199    0.854937155649270    0.111490489802698  0.0000
  O3     O3        0.352547862360490    0.106650415737463    0.910506760589782  0.0000
  O3     O3        0.128296503643536    0.866753270286934    0.869771896756690  0.0000
  O3     O3        0.415470986676823    0.761493735732468    0.911662929731677  0.0000
  O2     O2        0.087186714720831    0.201285519172849    0.894087294983489  0.0000
  O3     O3        0.596628657392963    0.788998848096343    0.126715205417360  0.0000
  O2     O2        0.916954015975465    0.193317536231877    0.094428929879393  0.0000
  O1     O1        0.509556744272826    0.050905995254318    0.981456663888280  0.0000
  O2     O2        0.010986048168182    0.939553596923998    0.006266685468461  0.0000
  O3     O3        0.126162577571820    0.548009382741444    0.305761251742813  0.0000
  O2     O2        0.362184894258873    0.474578730636935    0.319430422905905  0.0000
  O2     O2        0.854455703064311    0.510470619755759    0.686776299259294  0.0000
  O2     O2        0.630486961034833    0.478866272117137    0.713524453495706  0.0000
  O3     O3        0.237893595154778    0.276269578935122    0.344174087871477  0.0000
  O2     O2        0.256113820397092    0.727505743570910    0.332533718637523  0.0000
  O2     O2        0.748775481916594    0.257367321521615    0.686194962751505  0.0000
  O2     O2        0.735024633668536    0.732995305909167    0.693274004483843  0.0000
  O3     O3        0.122866965307633    0.259395642999492    0.137869385698358  0.0000
  O2     O2        0.355051922242740    0.715377594816656    0.137779238818898  0.0000
  O2     O2        0.860730194090509    0.268834948512674    0.866078526374146  0.0000
  O2     O2        0.634647768566325    0.732844600321780    0.888530241762072  0.0000
  O2     O2        0.843659963847092    0.754531496310991    0.873251549307513  0.0000
  O2     O2        0.656793889854470    0.224414475371545    0.884947311853839  0.0000
  O3     O3        0.163304734737731    0.794203456595972    0.137451578977648  0.0000
  O2     O2        0.331490200844746    0.215295222661926    0.150637516829756  0.0000
  O2     O2        0.638028848624884    0.472539723125903    0.058612524073031  0.0000
  O2     O2        0.873300586866980    0.516891754659146    0.048550821664753  0.0000
  O2     O2        0.368734052384644    0.444986164459065    0.973725173065168  0.0000
  O3     O3        0.117209013973248    0.523542089884529    0.970938470842699  0.0000
  O2     O2        0.766561486819743    0.272435668349288    0.064411572047866  0.0000
  O2     O2        0.745152967320446    0.717445252588325    0.066346744372731  0.0000
  O2     O2        0.231095750590252    0.299846533498262    0.966131019725710  0.0000
  O3     O3        0.264364136101243    0.698241458006209    0.932441398145601  0.0000
