data_c00884.vasp
_audit_creation_method             Generated by GULP
_audit_author_name                 Salvador R. G. Balestra
_symmetry_space_group_name_H-M     'P 1             '
_symmetry_Int_Tables_number        1

loop_
_symmetry_equiv_pos_site_id
_symmetry_equiv_pos_as_xyz
_cell_length_a                       16.7968
_cell_length_b                        7.5901
_cell_length_c                       10.4797
_cell_angle_alpha                   89.3182
_cell_angle_beta                    90.0000
_cell_angle_gamma                   90.0002

loop_
_atom_site_label
_atom_site_type_symbol
_atom_site_fract_x
_atom_site_fract_y
_atom_site_fract_z
_atom_site_charge
  Ge     Ge        0.556730000000016    0.000000000000000    0.122129999999970  0.0000
  Ge     Ge        0.056730472259232    0.025428859560102    0.886864990462561  0.0000
  Ge     Ge        0.831910231359247    0.731054418631763    0.027726057561538  0.0000
  Ge     Ge        0.331911040424904    0.294383319721232    0.981281782897751  0.0000
  Si     Si        0.054422781403802    0.023940937616300    0.371258505073377  0.0000
  Si     Si        0.456613584516520    0.004611620067251    0.380518524127738  0.0000
  Si     Si        0.956614965074548    0.020821833790572    0.628482206999529  0.0000
  Si     Si        0.554423218229197    0.001485689258669    0.637742147456559  0.0000
  Si     Si        0.945781292607393    0.007757860443494    0.125336245928038  0.0000
  Si     Si        0.445780329667357    0.017679747352268    0.883661227681382  0.0000
  Si     Si        0.156390547022371    0.336213113619154    0.286960096755951  0.0000
  Si     Si        0.356086422580632    0.697757875621269    0.285463485984754  0.0000
  Si     Si        0.856088301626038    0.327675076545907    0.723545971437299  0.0000
  Si     Si        0.656390451313665    0.689214320119556    0.722046157715160  0.0000
  Si     Si        0.838161077451034    0.734576666778965    0.724402711818533  0.0000
  Si     Si        0.672241243579764    0.286014230798141    0.721401576677811  0.0000
  Si     Si        0.172238827580788    0.739412941193880    0.287607294459145  0.0000
  Si     Si        0.338161662773329    0.290856463501725    0.284604464034839  0.0000
  Si     Si        0.674436126393496    0.278678599631165    0.017185284107265  0.0000
  Si     Si        0.174434100858028    0.746748846656279    0.991824272773368  0.0000
  Si     Si        0.360335861129859    0.694377165068074    0.991484351019455  0.0000
  Si     Si        0.146640040090360    0.351992533495398    0.987672306931555  0.0000
  Si     Si        0.646639616901563    0.673434502314896    0.021334659501796  0.0000
  Si     Si        0.860337161301456    0.331060749943447    0.017526159983174  0.0000
  O2     O2        0.095435170301003    0.216291678172229    0.368102878078308  0.0000
  O2     O2        0.415384279189707    0.812091143806312    0.371380240812981  0.0000
  O2     O2        0.915388096126387    0.213343471129208    0.637632208452500  0.0000
  O2     O2        0.595433657180160    0.809133466543269    0.640905415413854  0.0000
  O2     O2        0.889948979044485    0.868228809189750    0.638504878890048  0.0000
  O2     O2        0.622893033456146    0.151448694547194    0.634619670517605  0.0000
  O2     O2        0.122891342036674    0.873975100206949    0.374393654148190  0.0000
  O2     O2        0.389947765025157    0.157205980549403    0.370506409359726  0.0000
  O2     O2        0.999320792100774    0.006048378716015    0.493559802810521  0.0000
  O2     O2        0.499335220375862    0.019384636466649    0.515426668593941  0.0000
  O2     O2        0.999351742539040    0.995574192749573    0.249438951936938  0.0000
  O3     O3        0.523103623559213    0.029538670685422    0.273588211570136  0.0000
  O3     O3        0.023114979155062    0.995898535954445    0.735398164285823  0.0000
  O2     O2        0.499337765244904    0.029847750772567    0.759544559797409  0.0000
  O3     O3        0.642300849700031    0.126960454714541    0.106921276353118  0.0000
  O3     O3        0.871261601994729    0.878096405892925    0.133776864294806  0.0000
  O3     O3        0.371261557853103    0.147343021704890    0.875229407701299  0.0000
  O3     O3        0.142298396229366    0.898462854232421    0.902085228997226  0.0000
  O2     O2        0.415691912962515    0.816540259369006    0.903046259279294  0.0000
  O3     O3        0.080227804883494    0.243776199840707    0.914374090188997  0.0000
  O3     O3        0.580225272832321    0.781649354658323    0.094629488422695  0.0000
  O2     O2        0.915693691138733    0.208901262117274    0.105967086134879  0.0000
  O3     O3        0.492709062247313    0.081754756852117    0.008458304557511  0.0000
  O3     O3        0.992697418317889    0.943685755815990    0.000524306838463  0.0000
  O2     O2        0.139666631693031    0.541793158736903    0.313711973441222  0.0000
  O2     O2        0.371299716368132    0.489477139227429    0.303673704665126  0.0000
  O2     O2        0.871299768047250    0.535956804038288    0.705333303507759  0.0000
  O2     O2        0.639668523324386    0.483632792973035    0.695294659777536  0.0000
  O2     O2        0.246059817763322    0.286148106221628    0.328877241735166  0.0000
  O2     O2        0.265647152016079    0.746450624976683    0.322647485244497  0.0000
  O2     O2        0.765649530914337    0.278978107322694    0.686360363154819  0.0000
  O2     O2        0.746059454829931    0.739284710280308    0.680128261104602  0.0000
  O2     O2        0.144956192389126    0.297056104225315    0.137641753867409  0.0000
  O2     O2        0.375758736588806    0.750524263922574    0.138697609084911  0.0000
  O2     O2        0.875760208614334    0.274913189383954    0.870312716603847  0.0000
  O2     O2        0.644955125133256    0.728369795883202    0.871364697430604  0.0000
  O3     O3        0.842731299396454    0.794776179247939    0.869638480770607  0.0000
  O2     O2        0.662115921224433    0.227885885660097    0.868770821710658  0.0000
  O2     O2        0.162112526447083    0.797543629347192    0.140238131335892  0.0000
  O3     O3        0.342733428559328    0.230656859597892    0.139368498471221  0.0000
  O2     O2        0.629941256561397    0.465073021364419    0.040366686643876  0.0000
  O3     O3        0.880968307133444    0.531070634240955    0.042339477903277  0.0000
  O3     O3        0.380968575993942    0.494368345000308    0.966670736989201  0.0000
  O2     O2        0.129939644950364    0.560353199211070    0.968643542017630  0.0000
  O2     O2        0.767299479290679    0.304562186142737    0.047381637005314  0.0000
  O3     O3        0.733827538071089    0.719075268899111    0.072462267283325  0.0000
  O3     O3        0.233828496478372    0.306359404693604    0.936545209357708  0.0000
  O2     O2        0.267297938339257    0.720866795733368    0.961630583276484  0.0000
