data_c00876.vasp
_audit_creation_method             Generated by GULP
_audit_author_name                 Salvador R. G. Balestra
_symmetry_space_group_name_H-M     'P 1             '
_symmetry_Int_Tables_number        1

loop_
_symmetry_equiv_pos_site_id
_symmetry_equiv_pos_as_xyz
_cell_length_a                       16.9232
_cell_length_b                        7.5874
_cell_length_c                       10.4359
_cell_angle_alpha                   90.1344
_cell_angle_beta                    89.3288
_cell_angle_gamma                   89.6872

loop_
_atom_site_label
_atom_site_type_symbol
_atom_site_fract_x
_atom_site_fract_y
_atom_site_fract_z
_atom_site_charge
  Ge     Ge        0.556730000000016    0.000000000000000    0.122129999999970  0.0000
  Ge     Ge        0.057677162630239    0.978446178791819    0.885941486555674  0.0000
  Ge     Ge        0.336598190714124    0.704378212535802    0.295227568001552  0.0000
  Ge     Ge        0.830512350546462    0.264264641373494    0.034759762202983  0.0000
  Si     Si        0.050351372232055    0.969371689671049    0.373281010060134  0.0000
  Si     Si        0.455834045028264    0.985983544063189    0.384186671633009  0.0000
  Si     Si        0.952978925935092    0.975387261636954    0.631889286554824  0.0000
  Si     Si        0.553141682927897    0.999923284262119    0.639630722977139  0.0000
  Si     Si        0.945058485052975    0.984632033432405    0.126091889173170  0.0000
  Si     Si        0.446119225046701    0.983318184349030    0.883205542115574  0.0000
  Si     Si        0.169126712760368    0.252278441863278    0.286706310104557  0.0000
  Si     Si        0.834688765657520    0.261451082659800    0.730065917863038  0.0000
  Si     Si        0.671027557270116    0.712650784858654    0.731142550156506  0.0000
  Si     Si        0.852604571314630    0.668026119925143    0.726237182739376  0.0000
  Si     Si        0.654097218605743    0.308739560604153    0.735829317743381  0.0000
  Si     Si        0.151730805661918    0.658199301211325    0.292423110723746  0.0000
  Si     Si        0.352709857941736    0.291722070140227    0.291002438544674  0.0000
  Si     Si        0.646831544835862    0.328432531470023    0.036217329380278  0.0000
  Si     Si        0.859122599491946    0.663413248087035    0.022675371051064  0.0000
  Si     Si        0.356919709906301    0.302726265254662    0.994187518071195  0.0000
  Si     Si        0.152339141231652    0.656783983407431    0.993046831254791  0.0000
  Si     Si        0.334702309606127    0.705145691688359    0.990640300738152  0.0000
  Si     Si        0.174165900525554    0.256609620093961    0.989489295319486  0.0000
  Si     Si        0.675829387524582    0.721996124074227    0.028594572508335  0.0000
  O2     O2        0.120103588991959    0.114772749100503    0.372636360311766  0.0000
  O3     O3        0.390204228854780    0.835914158983870    0.395441836529144  0.0000
  O2     O2        0.886000444969472    0.126835882459872    0.644003703737019  0.0000
  O2     O2        0.619824518261689    0.847793070896139    0.648002625300788  0.0000
  O2     O2        0.912418297391368    0.782664742983359    0.640345295683160  0.0000
  O2     O2        0.592541799875782    0.191133634948480    0.657878874991624  0.0000
  O2     O2        0.088323614811484    0.773508936529978    0.373652642268891  0.0000
  O2     O2        0.410385454725616    0.172905127762083    0.375505714614128  0.0000
  O2     O2        0.994818607602182    0.995231201536338    0.495338705338227  0.0000
  O2     O2        0.515927754339159    0.991431219201258    0.500463891121600  0.0000
  O2     O2        0.997188458047217    0.998589504887082    0.250367926932671  0.0000
  O3     O3        0.506585665353650    0.944759964894814    0.257432419469987  0.0000
  O3     O3        0.020121806581550    0.997693666659188    0.736063679701202  0.0000
  O2     O2        0.482873938553852    0.970544852432901    0.741677146826403  0.0000
  O3     O3        0.582002136264651    0.220307879013137    0.114722153352441  0.0000
  O2     O2        0.917030762885371    0.783086253262246    0.105884918990335  0.0000
  O2     O2        0.415802134793038    0.184238433014154    0.907884578233802  0.0000
  O3     O3        0.090712023541005    0.765376381919309    0.911514313575128  0.0000
  O2     O2        0.374768488013737    0.843027926576642    0.893617842975373  0.0000
  O3     O3        0.137781408751321    0.118634964776758    0.894630858106819  0.0000
  O3     O3        0.643000501921475    0.874101421866875    0.117300954910728  0.0000
  O3     O3        0.870005311746041    0.111997109672604    0.137049022991845  0.0000
  O3     O3        0.508646126048447    0.928445497508961    0.988012769356806  0.0000
  O3     O3        0.992208589052086    0.051114176232765    0.001105964816111  0.0000
  O2     O2        0.137694798535920    0.450099236565564    0.315235724292063  0.0000
  O3     O3        0.369466918902019    0.492085368623660    0.320101617536890  0.0000
  O2     O2        0.867402868119368    0.459533908805584    0.707421552771220  0.0000
  O2     O2        0.638142408515099    0.515290326719849    0.708925738828767  0.0000
  O2     O2        0.261642207080011    0.240707282925771    0.321581448232922  0.0000
  O3     O3        0.238061048912356    0.711778688078900    0.336957599298679  0.0000
  O2     O2        0.742669395323164    0.256657345569601    0.690299272436717  0.0000
  O2     O2        0.763023507213931    0.718282229088191    0.688568882714987  0.0000
  O2     O2        0.159208854808916    0.201126350182119    0.137702426430387  0.0000
  O3     O3        0.346767931187868    0.765723898171681    0.136526029868972  0.0000
  O3     O3        0.840178736960162    0.201762749537501    0.876089251523505  0.0000
  O2     O2        0.665361181464084    0.771203284696210    0.878957275666260  0.0000
  O2     O2        0.871167509847791    0.717755855801048    0.873450856148659  0.0000
  O2     O2        0.643133343865721    0.269950382559599    0.886541757678401  0.0000
  O2     O2        0.140853662367624    0.705084921228285    0.142921933929036  0.0000
  O2     O2        0.373089221317179    0.250062244045185    0.141547107353421  0.0000
  O2     O2        0.630631950827738    0.536806186026751    0.053493479891200  0.0000
  O3     O3        0.879759230358328    0.462918167110971    0.047715318018340  0.0000
  O2     O2        0.373437638424044    0.509860803158984    0.972904178649437  0.0000
  O2     O2        0.136719637575206    0.450487032082475    0.968632849473421  0.0000
  O3     O3        0.733809785232755    0.281721267056676    0.083790050420478  0.0000
  O2     O2        0.767707571283987    0.694517538438490    0.060225403361758  0.0000
  O2     O2        0.267339997851713    0.261436923747537    0.959341993901056  0.0000
  O2     O2        0.242591566018391    0.701968806887062    0.955137973754483  0.0000
