data_c00803.vasp
_audit_creation_method             Generated by GULP
_audit_author_name                 Salvador R. G. Balestra
_symmetry_space_group_name_H-M     'P 1             '
_symmetry_Int_Tables_number        1

loop_
_symmetry_equiv_pos_site_id
_symmetry_equiv_pos_as_xyz
_cell_length_a                       16.8750
_cell_length_b                        7.5470
_cell_length_c                       10.4871
_cell_angle_alpha                   88.8322
_cell_angle_beta                    89.4335
_cell_angle_gamma                   91.0864

loop_
_atom_site_label
_atom_site_type_symbol
_atom_site_fract_x
_atom_site_fract_y
_atom_site_fract_z
_atom_site_charge
  Ge     Ge        0.556730000000016    0.000000000000000    0.122129999999970  0.0000
  Ge     Ge        0.944425185379208    0.031220564663824    0.124537389879494  0.0000
  Ge     Ge        0.857935974938058    0.366464417312008    0.716414458859536  0.0000
  Ge     Ge        0.642128025057307    0.667659275911009    0.027302812534078  0.0000
  Si     Si        0.051836861070651    0.026305916471031    0.377666659683302  0.0000
  Si     Si        0.455364225551689    0.028538125326259    0.375173601665202  0.0000
  Si     Si        0.959274590025833    0.057515658493401    0.636494348732808  0.0000
  Si     Si        0.550578366858657    0.029047173842756    0.633638655422261  0.0000
  Si     Si        0.446883297748301    0.040866512156622    0.883476317271590  0.0000
  Si     Si        0.059188509207568    0.032868850199353    0.886276988524610  0.0000
  Si     Si        0.154905575427312    0.340800180280387    0.286972730577518  0.0000
  Si     Si        0.352805867515706    0.719232309377241    0.279769257112248  0.0000
  Si     Si        0.651355712406601    0.719219493375648    0.726694819153115  0.0000
  Si     Si        0.832456583063042    0.778630808594966    0.735032364465464  0.0000
  Si     Si        0.673233175869622    0.313236772174835    0.710063606592390  0.0000
  Si     Si        0.169577098410210    0.748839280374406    0.283263887290931  0.0000
  Si     Si        0.337355295022376    0.310368122987643    0.281191290167686  0.0000
  Si     Si        0.676495276545451    0.271279155061931    0.008394359916671  0.0000
  Si     Si        0.825874365064222    0.748366809629932    0.032071821923914  0.0000
  Si     Si        0.334879597727799    0.315883768658414    0.984354683104409  0.0000
  Si     Si        0.170355763370394    0.752726577480008    0.986722781926670  0.0000
  Si     Si        0.354229411039484    0.718118127121944    0.984720911836101  0.0000
  Si     Si        0.151635890542516    0.350794433916830    0.990613556334354  0.0000
  Si     Si        0.858509784963342    0.355908525400024    0.016387655391073  0.0000
  O2     O2        0.094147068642389    0.220888114476188    0.371351164590746  0.0000
  O2     O2        0.413482677713612    0.834947201171089    0.361521693684668  0.0000
  O3     O3        0.927807457897820    0.255737163169456    0.627883709385161  0.0000
  O2     O2        0.591661801605546    0.838123093265057    0.643101715451883  0.0000
  O2     O2        0.880606702437900    0.935469267566987    0.661390936713785  0.0000
  O2     O2        0.618080256373618    0.183569024828788    0.627419191672943  0.0000
  O2     O2        0.119862256276202    0.878382494893831    0.370613149908510  0.0000
  O2     O2        0.388362702847360    0.178342998890161    0.366705383698649  0.0000
  O2     O2        0.003505966849322    0.002747245744210    0.508372139269461  0.0000
  O2     O2        0.497971435764234    0.037643303989195    0.508927881958424  0.0000
  O3     O3        0.990752853189724    0.998125733137286    0.265944878005884  0.0000
  O3     O3        0.520890644899861    0.062535600116515    0.266918899847755  0.0000
  O2     O2        0.022698926199374    0.028006621161226    0.747454157310738  0.0000
  O2     O2        0.491085920448054    0.063271088054078    0.749908595812381  0.0000
  O3     O3        0.648303327286270    0.103212736213151    0.090028776176238  0.0000
  O3     O3        0.863227483471151    0.889074829784606    0.124939403534370  0.0000
  O2     O2        0.374939819576657    0.179592462818235    0.890113790801397  0.0000
  O2     O2        0.131629231244725    0.895352874592875    0.893270544025102  0.0000
  O2     O2        0.412669916588711    0.838648744009270    0.897113739334728  0.0000
  O2     O2        0.091099273003885    0.233133407074333    0.910439029291562  0.0000
  O1     O1        0.573791215686259    0.778369094311528    0.115764948090583  0.0000
  O3     O3        0.914859391153755    0.248009665475373    0.109524655431446  0.0000
  O3     O3        0.501740444101998    0.088063625990225    0.999821069635305  0.0000
  O3     O3        0.998876422698777    0.967387289564696    0.994597248670750  0.0000
  O2     O2        0.141550293928501    0.546892626608019    0.314640165908229  0.0000
  O2     O2        0.365922953305303    0.511589471300675    0.307171505997703  0.0000
  O3     O3        0.872319762090600    0.593156751004217    0.705743257472850  0.0000
  O2     O2        0.637968788250808    0.510962736569474    0.699524633774167  0.0000
  O2     O2        0.244835379215022    0.288494430107891    0.318760155686578  0.0000
  O2     O2        0.262777119124969    0.770587398861311    0.312691182216424  0.0000
  O3     O3        0.763441145672752    0.317525268208166    0.662575039785544  0.0000
  O2     O2        0.741617140720631    0.774337503430560    0.687238511680187  0.0000
  O2     O2        0.136151881948418    0.301911798633854    0.139419508306443  0.0000
  O2     O2        0.373130391642642    0.765216059758517    0.131478739518006  0.0000
  O3     O3        0.875100367472077    0.298473237358808    0.871898223178611  0.0000
  O3     O3        0.632982962862259    0.753242692572538    0.873301713724718  0.0000
  O2     O2        0.829254753202201    0.819921382286300    0.885209959438918  0.0000
  O2     O2        0.673119682698124    0.241853896226417    0.856118367548254  0.0000
  O2     O2        0.155271293765139    0.798976415289075    0.134864046769064  0.0000
  O2     O2        0.348607912553675    0.263228933840602    0.132665399350723  0.0000
  O3     O3        0.624126415963401    0.443012448926211    0.038340640333847  0.0000
  O2     O2        0.874729242182824    0.564633936718002    0.035414916330215  0.0000
  O2     O2        0.371342585719169    0.513147551523858    0.958273176587951  0.0000
  O2     O2        0.134394417216283    0.556698555263850    0.961516388287489  0.0000
  O2     O2        0.766341022193786    0.315159231937091    0.047468030886935  0.0000
  O3     O3        0.736870532085259    0.712265971607971    0.078209584540199  0.0000
  O2     O2        0.241897355809303    0.310558649476814    0.954173823966567  0.0000
  O2     O2        0.263474497502059    0.758600359564787    0.955758476315572  0.0000
