data_c00940.vasp
_audit_creation_method             Generated by GULP
_audit_author_name                 Salvador R. G. Balestra
_symmetry_space_group_name_H-M     'P 1             '
_symmetry_Int_Tables_number        1

loop_
_symmetry_equiv_pos_site_id
_symmetry_equiv_pos_as_xyz
_cell_length_a                       17.0705
_cell_length_b                        7.6224
_cell_length_c                       10.3103
_cell_angle_alpha                   90.1869
_cell_angle_beta                    89.9994
_cell_angle_gamma                   89.6518

loop_
_atom_site_label
_atom_site_type_symbol
_atom_site_fract_x
_atom_site_fract_y
_atom_site_fract_z
_atom_site_charge
  Ge     Ge        0.556730000000016    0.000000000000000    0.122129999999970  0.0000
  Ge     Ge        0.144893254494082    0.325328889353003    0.264378392115304  0.0000
  Ge     Ge        0.655708381679025    0.290678860395829    0.701104900752212  0.0000
  Ge     Ge        0.164151579485375    0.727925427219729    0.948933565137490  0.0000
  Si     Si        0.040442649314023    0.019957918462308    0.349280968023295  0.0000
  Si     Si        0.443345463648837    0.999674882583577    0.364383278441888  0.0000
  Si     Si        0.940976537353895    0.017573649249787    0.605132424600416  0.0000
  Si     Si        0.536514743709888    0.005616890841684    0.623740597303448  0.0000
  Si     Si        0.944441509220975    0.004750359796746    0.087991376540282  0.0000
  Si     Si        0.439551023520356    0.002369692707153    0.882999948108312  0.0000
  Si     Si        0.054069966296557    0.011984012545326    0.849026299453842  0.0000
  Si     Si        0.338956679837542    0.695402829942700    0.261429744874569  0.0000
  Si     Si        0.839199498885412    0.327036771111985    0.685349703231552  0.0000
  Si     Si        0.644924666387576    0.704578753526645    0.709125314556967  0.0000
  Si     Si        0.826344734623311    0.728315307537120    0.696934834156235  0.0000
  Si     Si        0.159760950736392    0.739679028247765    0.255438000230184  0.0000
  Si     Si        0.327657836877101    0.294181039964886    0.269576932375806  0.0000
  Si     Si        0.668371350648779    0.280295265982986    0.005376145603473  0.0000
  Si     Si        0.831602478801720    0.717850390957300    0.999904987411852  0.0000
  Si     Si        0.325286755325880    0.288756033746433    0.964609805517065  0.0000
  Si     Si        0.346382283866779    0.680747720222850    0.956718309040119  0.0000
  Si     Si        0.143629848662294    0.323983195088237    0.959111977485467  0.0000
  Si     Si        0.650980772114985    0.685241139666690    0.008003583353469  0.0000
  Si     Si        0.848131337807629    0.321467182276067    0.989920530286424  0.0000
  O3     O3        0.078640106807270    0.210510525083562    0.356153577488212  0.0000
  O2     O2        0.399271608545389    0.817242537435741    0.337525484315667  0.0000
  O2     O2        0.899405535822606    0.208493036075152    0.601891176848167  0.0000
  O2     O2        0.587128597719403    0.826215326567992    0.626012042425151  0.0000
  O2     O2        0.874661986519801    0.868601821638209    0.614921592035956  0.0000
  O3     O3        0.596141588770607    0.164412285997476    0.605264200436263  0.0000
  O2     O2        0.111128208715961    0.878483376841907    0.341509992871614  0.0000
  O2     O2        0.384391487633059    0.163055127048253    0.346011453360016  0.0000
  O2     O2        0.989018527841296    0.984142742921354    0.475333074534753  0.0000
  O2     O2        0.472020413147114    0.997354452386860    0.512114172950160  0.0000
  O2     O2        0.983378870725132    0.999265777626008    0.227264095467758  0.0000
  O3     O3        0.519187565193363    0.016533778302910    0.275525500082849  0.0000
  O2     O2        0.000436078436008    0.005910658350474    0.723907741065254  0.0000
  O2     O2        0.491505213780845    0.036631295134135    0.758277959542262  0.0000
  O3     O3        0.629696957124093    0.154316190779753    0.108240184382983  0.0000
  O2     O2        0.876415704784482    0.859379995366492    0.086593293861181  0.0000
  O2     O2        0.364985745705260    0.134822755388038    0.881111866749714  0.0000
  O3     O3        0.122340697952844    0.869097680349589    0.839363900644768  0.0000
  O2     O2        0.410756216419925    0.799934300270748    0.884575269868010  0.0000
  O2     O2        0.090511751561935    0.205682226441747    0.864499822528815  0.0000
  O3     O3        0.594510848727504    0.790484850361476    0.102387215233986  0.0000
  O2     O2        0.910140357536247    0.199644265825956    0.064039310907318  0.0000
  O3     O3        0.485906348304402    0.052045040417853    0.011495315578825  0.0000
  O2     O2        0.006451450574692    0.953627852871814    0.977273504881019  0.0000
  O3     O3        0.125371805290590    0.546750887591471    0.272872929518875  0.0000
  O2     O2        0.358513477641823    0.492566359094574    0.292111915582187  0.0000
  O2     O2        0.855654958725755    0.532693376161686    0.659515502809233  0.0000
  O3     O3        0.624287605504169    0.504669410503513    0.685869397045313  0.0000
  O3     O3        0.239063739293706    0.281342837937925    0.317685239376667  0.0000
  O2     O2        0.250178813638636    0.738827142406684    0.304278159144610  0.0000
  O3     O3        0.751418651619721    0.280449869066129    0.647215427368270  0.0000
  O2     O2        0.734199840485727    0.745389918060049    0.665296921169765  0.0000
  O3     O3        0.132250964307850    0.258856595797166    0.105402666519165  0.0000
  O2     O2        0.348406378617550    0.731914502749416    0.108791633836234  0.0000
  O2     O2        0.853607197466845    0.284434423428060    0.836753767629590  0.0000
  O2     O2        0.634770094147582    0.752541638327046    0.861543907823364  0.0000
  O2     O2        0.839608889958055    0.767071714045886    0.848835341445211  0.0000
  O3     O3        0.652744375327521    0.216212002988180    0.859157657552351  0.0000
  O3     O3        0.158120316126015    0.800659215109681    0.107065866043661  0.0000
  O2     O2        0.328834675984022    0.245383784460661    0.117229264887095  0.0000
  O2     O2        0.634346361084883    0.478439221631818    0.017011659489289  0.0000
  O2     O2        0.868120412290343    0.523848861728429    0.022545868895855  0.0000
  O2     O2        0.368182556392963    0.474789282377873    0.937694564955311  0.0000
  O3     O3        0.119973186379496    0.524698973852265    0.941711323758224  0.0000
  O2     O2        0.760862382393458    0.279281276933692    0.036504112467429  0.0000
  O2     O2        0.741413370522904    0.722524747520651    0.043640001920509  0.0000
  O2     O2        0.235307207067287    0.303932621734572    0.921101013914809  0.0000
  O3     O3        0.260918498291695    0.715743887737062    0.901709108535354  0.0000
