data_c00996.vasp
_audit_creation_method             Generated by GULP
_audit_author_name                 Salvador R. G. Balestra
_symmetry_space_group_name_H-M     'P 1             '
_symmetry_Int_Tables_number        1

loop_
_symmetry_equiv_pos_site_id
_symmetry_equiv_pos_as_xyz
_cell_length_a                       17.0662
_cell_length_b                        7.5937
_cell_length_c                       10.3272
_cell_angle_alpha                   89.1642
_cell_angle_beta                    90.4966
_cell_angle_gamma                   90.6301

loop_
_atom_site_label
_atom_site_type_symbol
_atom_site_fract_x
_atom_site_fract_y
_atom_site_fract_z
_atom_site_charge
  Ge     Ge        0.556730000000016    0.000000000000000    0.122129999999970  0.0000
  Ge     Ge        0.349303448391722    0.679350627874439    0.303917879814567  0.0000
  Ge     Ge        0.850739460865745    0.334865027944785    0.724159092608929  0.0000
  Ge     Ge        0.858543304587318    0.344735024052419    0.040575550800298  0.0000
  Si     Si        0.048713080671439    0.991443769979607    0.384934936003010  0.0000
  Si     Si        0.453128890545173    0.990996916029491    0.382550867507240  0.0000
  Si     Si        0.952822971271750    0.025596133746573    0.642651771974765  0.0000
  Si     Si        0.546999253472956    0.006649864104875    0.642774253975859  0.0000
  Si     Si        0.945849055026335    0.020300666543002    0.135790860232913  0.0000
  Si     Si        0.440605133969233    0.009164626693850    0.882930744950986  0.0000
  Si     Si        0.056240592926608    0.007589542509522    0.897131945215441  0.0000
  Si     Si        0.152319116252217    0.301999250537277    0.291639322945407  0.0000
  Si     Si        0.650771651444086    0.701265585758726    0.737083275235102  0.0000
  Si     Si        0.830586588210383    0.746280396392060    0.731569140714925  0.0000
  Si     Si        0.669020426675773    0.295852863457466    0.734362483103292  0.0000
  Si     Si        0.165114411809833    0.707250735667293    0.299833911111301  0.0000
  Si     Si        0.333866769778742    0.267525556029383    0.292860162128960  0.0000
  Si     Si        0.676905401467358    0.288462160518495    0.038878353354794  0.0000
  Si     Si        0.831269411781276    0.744392885544340    0.036364767095167  0.0000
  Si     Si        0.332269161473968    0.290085507523802    0.990797729979117  0.0000
  Si     Si        0.167458698465112    0.720612552841965    0.996072509583295  0.0000
  Si     Si        0.348721423996888    0.692082787467642    0.996459665078073  0.0000
  Si     Si        0.151003951118711    0.321500656938576    0.991232832144571  0.0000
  Si     Si        0.650911781787555    0.682139655130142    0.037001216078688  0.0000
  O2     O2        0.094507837952993    0.178299491504478    0.374697038540700  0.0000
  O3     O3        0.417749237952818    0.795480169001992    0.392457405237047  0.0000
  O3     O3        0.918952504326530    0.220348414691465    0.636151553798349  0.0000
  O2     O2        0.589681003044994    0.818105748088931    0.654530239041632  0.0000
  O2     O2        0.876573980523654    0.897746558950496    0.652513261555312  0.0000
  O2     O2        0.609155485172368    0.163263640640205    0.665336827591051  0.0000
  O2     O2        0.110448293060978    0.832888770269053    0.382180309079603  0.0000
  O2     O2        0.378009105739147    0.120719762171110    0.377992818807808  0.0000
  O2     O2        0.002462642059764    0.981173094347080    0.517576004562629  0.0000
  O2     O2        0.512011647836604    0.029986033273952    0.499812253398672  0.0000
  O2     O2        0.986186178634702    0.967145911530899    0.270260787504129  0.0000
  O3     O3        0.500220125625550    0.031398889042636    0.253098045954968  0.0000
  O2     O2        0.010291091692047    0.989800482267691    0.763845186174014  0.0000
  O2     O2        0.473651632506156    0.016528634232296    0.738479816987640  0.0000
  O3     O3        0.636099758639679    0.141388302546563    0.124836250943539  0.0000
  O2     O2        0.865852938167309    0.905921787006806    0.118592118447351  0.0000
  O2     O2        0.373325907258075    0.155904964688745    0.895720735159991  0.0000
  O2     O2        0.124458932141942    0.862619930612518    0.905506101203420  0.0000
  O2     O2        0.405651496552653    0.813418291346457    0.909401051191013  0.0000
  O2     O2        0.093796737306487    0.204269161540320    0.902705116501473  0.0000
  O3     O3        0.591332059741297    0.786686107288961    0.123356767696722  0.0000
  O3     O3        0.924429775931756    0.223901722863419    0.132666920235175  0.0000
  O3     O3        0.508815500011429    0.057604228208353    0.981511710936191  0.0000
  O2     O2        0.000442243085036    0.967589701808188    0.017176380438680  0.0000
  O2     O2        0.136296136713174    0.505488962583142    0.321981514810085  0.0000
  O3     O3        0.366744308191597    0.458787914531346    0.326567361434143  0.0000
  O3     O3        0.865693302877810    0.558381146189343    0.700305578289180  0.0000
  O2     O2        0.635617288594297    0.493867854204636    0.714964912112986  0.0000
  O2     O2        0.241841306614640    0.256449893085002    0.326740686145440  0.0000
  O3     O3        0.254254329564532    0.725872067836060    0.345825998470841  0.0000
  O3     O3        0.755271015236057    0.285949005089563    0.676354456925804  0.0000
  O2     O2        0.738668483397114    0.750812520904796    0.691848387210237  0.0000
  O2     O2        0.135940773411083    0.265524104320408    0.140274333610140  0.0000
  O3     O3        0.365499944290141    0.740043338077951    0.144118851390057  0.0000
  O1     O1        0.869070822608529    0.283610495917568    0.883077949513110  0.0000
  O2     O2        0.638397205390231    0.746562871366649    0.887704380735409  0.0000
  O2     O2        0.837012500716075    0.786765749369368    0.883622243976509  0.0000
  O2     O2        0.678774854851347    0.244115889210128    0.885901117430380  0.0000
  O2     O2        0.159568987390463    0.761751119159832    0.147998637885520  0.0000
  O2     O2        0.344876198044826    0.230444679437372    0.139984653897504  0.0000
  O2     O2        0.632546741175308    0.475177318101734    0.053562881800319  0.0000
  O3     O3        0.877913583946338    0.566027320553496    0.063639186547171  0.0000
  O2     O2        0.367468258537828    0.487141889119175    0.971537654008950  0.0000
  O2     O2        0.131300973613560    0.526735448936340    0.967717737344324  0.0000
  O3     O3        0.764440465009147    0.306085323602031    0.091180621375528  0.0000
  O2     O2        0.740912941738046    0.720925269428402    0.077254989312849  0.0000
  O2     O2        0.240613260798001    0.287416013806725    0.955014854794743  0.0000
  O2     O2        0.258544050806679    0.728116122823130    0.959318421822511  0.0000
