data_c00952.vasp
_audit_creation_method             Generated by GULP
_audit_author_name                 Salvador R. G. Balestra
_symmetry_space_group_name_H-M     'P 1             '
_symmetry_Int_Tables_number        1

loop_
_symmetry_equiv_pos_site_id
_symmetry_equiv_pos_as_xyz
_cell_length_a                       17.0435
_cell_length_b                        7.6292
_cell_length_c                       10.2995
_cell_angle_alpha                   91.1579
_cell_angle_beta                    89.8070
_cell_angle_gamma                   89.6958

loop_
_atom_site_label
_atom_site_type_symbol
_atom_site_fract_x
_atom_site_fract_y
_atom_site_fract_z
_atom_site_charge
  Ge     Ge        0.556730000000016    0.000000000000000    0.122129999999970  0.0000
  Ge     Ge        0.144492996402002    0.329808639962884    0.292935335560366  0.0000
  Ge     Ge        0.333672244404794    0.289989708193704    0.301278523173678  0.0000
  Ge     Ge        0.169541212415332    0.717284267195089    0.972322593612611  0.0000
  Si     Si        0.044602656304129    0.019398147876149    0.375890207641782  0.0000
  Si     Si        0.449840459930801    0.002927821876733    0.380693383231542  0.0000
  Si     Si        0.945403119844356    0.998609630683925    0.631772629823127  0.0000
  Si     Si        0.547475867775203    0.985349754726951    0.637116048823788  0.0000
  Si     Si        0.949267068635623    0.999799177488515    0.115213606018677  0.0000
  Si     Si        0.442751838876707    0.989917937305620    0.882073336197617  0.0000
  Si     Si        0.059389393774565    0.000845115804975    0.875038986853709  0.0000
  Si     Si        0.345340127287914    0.695479219621864    0.288062404915269  0.0000
  Si     Si        0.842374328411167    0.306904320506683    0.716116889667938  0.0000
  Si     Si        0.651660711721268    0.683667178341520    0.735688935903058  0.0000
  Si     Si        0.832371613284806    0.707973760765289    0.722319924321951  0.0000
  Si     Si        0.662268338789574    0.278520482577188    0.733145878773975  0.0000
  Si     Si        0.164285522332426    0.739560852646044    0.279509181248461  0.0000
  Si     Si        0.673478276328919    0.279959274857278    0.034671343004696  0.0000
  Si     Si        0.836381067468005    0.711165158947693    0.025696665699999  0.0000
  Si     Si        0.332921223138166    0.276580069251707    0.992446125609725  0.0000
  Si     Si        0.352008414912964    0.673479757589194    0.983933671520236  0.0000
  Si     Si        0.149111952398786    0.314672044074906    0.986888269584778  0.0000
  Si     Si        0.655185437802531    0.679247533226784    0.037053493850238  0.0000
  Si     Si        0.853704523846471    0.314733429247964    0.019276584991570  0.0000
  O3     O3        0.077023159630405    0.215187037183281    0.383005493801964  0.0000
  O2     O2        0.401392844581950    0.822814720691984    0.369893365618698  0.0000
  O2     O2        0.898339852654417    0.182758425192413    0.628307718035097  0.0000
  O2     O2        0.592788701257548    0.801282835335312    0.653366233493342  0.0000
  O2     O2        0.883293557666831    0.840554671650138    0.638764068821743  0.0000
  O2     O2        0.607242316364846    0.147330591203676    0.652314470521852  0.0000
  O2     O2        0.119527805312214    0.888956693661923    0.363990081281799  0.0000
  O3     O3        0.388191958140579    0.159366926449799    0.401459765546737  0.0000
  O2     O2        0.995637091988688    0.972865585036098    0.502627294926972  0.0000
  O2     O2        0.513692483117463    0.988558621696495    0.493051927353895  0.0000
  O2     O2        0.987266362932930    0.990074737299189    0.254861866878030  0.0000
  O3     O3        0.495363451448712    0.041600002901067    0.248474264527281  0.0000
  O2     O2        0.004283477964331    0.997101249749506    0.751553380727717  0.0000
  O2     O2        0.474423295387436    0.000706441657968    0.735585860072714  0.0000
  O3     O3        0.633401072870504    0.147800292352418    0.128926414421852  0.0000
  O2     O2        0.880551867638771    0.856342031858312    0.111047273747080  0.0000
  O2     O2        0.370826420175139    0.127849713277156    0.898553652624721  0.0000
  O3     O3        0.126292867502616    0.854413580529226    0.863109736036285  0.0000
  O2     O2        0.415636575813597    0.790395071836437    0.909268876085850  0.0000
  O2     O2        0.098622657891555    0.192010920848336    0.889904278551434  0.0000
  O3     O3        0.597067966453062    0.791491820062293    0.126331797725672  0.0000
  O2     O2        0.915431699661308    0.195494915070789    0.094839954149155  0.0000
  O3     O3        0.510296075791230    0.046206552589192    0.979423533101947  0.0000
  O2     O2        0.011968606464136    0.948408801052233    0.004510830040502  0.0000
  O3     O3        0.124939668922818    0.552037115938083    0.298922624878274  0.0000
  O3     O3        0.369976985212182    0.499877169890199    0.316972760326987  0.0000
  O2     O2        0.859460021904091    0.509671846985825    0.685898892498235  0.0000
  O2     O2        0.633786971464980    0.478192319288440    0.710916725404590  0.0000
  O1     O1        0.237286786403888    0.288383216847741    0.346432643934198  0.0000
  O2     O2        0.254529813521986    0.727609331498820    0.328196842263713  0.0000
  O2     O2        0.752179141154929    0.260103101488322    0.684652360080443  0.0000
  O2     O2        0.740221289288449    0.728345528677954    0.691475809043513  0.0000
  O3     O3        0.134132370014862    0.257624803209159    0.133351899939898  0.0000
  O2     O2        0.354785531589848    0.733786089249947    0.135004338937485  0.0000
  O2     O2        0.861706916590667    0.271285596740328    0.866259085882032  0.0000
  O2     O2        0.639178299373181    0.731691955777372    0.887527446007274  0.0000
  O2     O2        0.845866590574256    0.752353054286311    0.873840155210511  0.0000
  O2     O2        0.658652906366611    0.227786755758399    0.883737843873183  0.0000
  O3     O3        0.164205771124746    0.794632775362787    0.130420525278881  0.0000
  O3     O3        0.341164651079906    0.220212264949434    0.140428542893961  0.0000
  O2     O2        0.638978465875505    0.475272930188350    0.059443397282806  0.0000
  O2     O2        0.872824477756791    0.518361350512369    0.050730221545229  0.0000
  O2     O2        0.373999980239910    0.466255327978742    0.971599662469520  0.0000
  O3     O3        0.125547844132196    0.514051001833694    0.964700087490717  0.0000
  O2     O2        0.765956845333318    0.274643825841518    0.065131260658570  0.0000
  O2     O2        0.745897841118896    0.719963706639803    0.068546023906786  0.0000
  O2     O2        0.241772357309992    0.294815702484181    0.956196281352963  0.0000
  O3     O3        0.266842698250445    0.704825607307505    0.926257749065891  0.0000
