data_c00947.vasp
_audit_creation_method             Generated by GULP
_audit_author_name                 Salvador R. G. Balestra
_symmetry_space_group_name_H-M     'P 1             '
_symmetry_Int_Tables_number        1

loop_
_symmetry_equiv_pos_site_id
_symmetry_equiv_pos_as_xyz
_cell_length_a                       17.1398
_cell_length_b                        7.6220
_cell_length_c                       10.2758
_cell_angle_alpha                   90.1531
_cell_angle_beta                    91.2059
_cell_angle_gamma                   89.8530

loop_
_atom_site_label
_atom_site_type_symbol
_atom_site_fract_x
_atom_site_fract_y
_atom_site_fract_z
_atom_site_charge
  Ge     Ge        0.556730000000016    0.000000000000000    0.122129999999970  0.0000
  Ge     Ge        0.149882431949759    0.324243500919323    0.279572557967826  0.0000
  Ge     Ge        0.167509792953369    0.741767211830085    0.274847512279244  0.0000
  Ge     Ge        0.330541483075854    0.279682586410683    0.964045112637615  0.0000
  Si     Si        0.045529944949997    0.019834919233021    0.362534577907409  0.0000
  Si     Si        0.452291757339747    0.995378944553743    0.371421231602295  0.0000
  Si     Si        0.945753882592325    0.004336410488714    0.613591283809918  0.0000
  Si     Si        0.549966040135091    0.992008383274478    0.631522604056876  0.0000
  Si     Si        0.947646393220368    0.000905916778241    0.099704223012302  0.0000
  Si     Si        0.442816531625810    0.996473484676807    0.876876944652442  0.0000
  Si     Si        0.055442437096573    0.011275746055305    0.859656584794211  0.0000
  Si     Si        0.349944644776035    0.688609868488315    0.269009510180874  0.0000
  Si     Si        0.844003751330706    0.309113398084623    0.709251767805141  0.0000
  Si     Si        0.655223945713710    0.688715374169636    0.710655670258057  0.0000
  Si     Si        0.834653208333353    0.711197872385890    0.710800163745658  0.0000
  Si     Si        0.663400371325905    0.284183460575801    0.712064083482104  0.0000
  Si     Si        0.334132198792296    0.281035667423835    0.273643901989180  0.0000
  Si     Si        0.669997359146028    0.284407705398000    0.013774798186829  0.0000
  Si     Si        0.835428374620073    0.712404837926747    0.015451808265970  0.0000
  Si     Si        0.166061753736789    0.727971161731105    0.964819848334017  0.0000
  Si     Si        0.347353102050563    0.683031392588334    0.964729683930257  0.0000
  Si     Si        0.146022468843866    0.324849811166428    0.969279627602662  0.0000
  Si     Si        0.655350027488344    0.685688678891084    0.013600803540740  0.0000
  Si     Si        0.850710479844810    0.314805907526485    0.011999948176974  0.0000
  O3     O3        0.082897297918151    0.211175029661042    0.369299129881445  0.0000
  O2     O2        0.414107474430355    0.803867771779640    0.346734686946978  0.0000
  O2     O2        0.898853043981543    0.187235900559855    0.622856647517235  0.0000
  O2     O2        0.597717046692878    0.809235552769025    0.623478415459377  0.0000
  O2     O2        0.886466957314229    0.842867901460558    0.628520766116548  0.0000
  O2     O2        0.610482000552500    0.154299492131019    0.624414254323489  0.0000
  O3     O3        0.117998311137729    0.886550646238894    0.370468979250949  0.0000
  O2     O2        0.388706055325426    0.151281897668472    0.359233620389741  0.0000
  O2     O2        0.982435948064934    0.990613361699265    0.472435613689572  0.0000
  O2     O2        0.486251905789709    0.001807894639857    0.517473316855232  0.0000
  O2     O2        0.003449848951735    0.982218585030059    0.223827643804540  0.0000
  O3     O3        0.523884111211305    0.020535757899222    0.277241330710415  0.0000
  O2     O2        0.016366137358761    0.995944794907756    0.717845840517773  0.0000
  O2     O2        0.505166645985270    0.002563112170432    0.765720319443682  0.0000
  O3     O3        0.630039095125972    0.152798409724995    0.108595777629600  0.0000
  O2     O2        0.881498103429742    0.851107719764684    0.104950676799833  0.0000
  O3     O3        0.374594784814373    0.138053167515169    0.858482617306588  0.0000
  O2     O2        0.124103229026423    0.865967873977916    0.868091753039881  0.0000
  O2     O2        0.405082842091971    0.802931812511801    0.882981788848783  0.0000
  O2     O2        0.087823524834393    0.208551141376812    0.878686183967352  0.0000
  O3     O3        0.596210302148736    0.793827224702697    0.098165897653049  0.0000
  O2     O2        0.907891583988389    0.193580371123904    0.098766933885712  0.0000
  O3     O3        0.482842518608954    0.048110351103553    0.013935352538880  0.0000
  O2     O2        0.994034008856577    0.965194845667992    0.969096621792928  0.0000
  O1     O1        0.147136824188725    0.535799667056923    0.328817277728967  0.0000
  O2     O2        0.349186936841717    0.485426094487751    0.314438217622688  0.0000
  O2     O2        0.861378575303029    0.512530807368727    0.679153105645676  0.0000
  O2     O2        0.636442402424267    0.484219481425026    0.684978227889988  0.0000
  O3     O3        0.243823307118639    0.239646893878426    0.294678674881715  0.0000
  O3     O3        0.266760419522892    0.775751038913347    0.291057076183806  0.0000
  O2     O2        0.753990302780699    0.263576638550133    0.675745624333334  0.0000
  O2     O2        0.743692864980921    0.732205687461031    0.671146922167936  0.0000
  O3     O3        0.121449766506797    0.306706028542129    0.117522191552917  0.0000
  O2     O2        0.372011416102597    0.694592785294699    0.117096876036036  0.0000
  O2     O2        0.863926618252568    0.270621334427501    0.860401557100972  0.0000
  O2     O2        0.642554776887487    0.735863387660436    0.861744622318191  0.0000
  O2     O2        0.845349464131896    0.755250591483845    0.863223666482584  0.0000
  O2     O2        0.653242567116322    0.232483496477115    0.862840972984158  0.0000
  O3     O3        0.142685534894826    0.765555593948522    0.111907338871833  0.0000
  O3     O3        0.356957729578771    0.250694114235122    0.125147974014509  0.0000
  O2     O2        0.637875121020064    0.480895190495221    0.035665839670610  0.0000
  O2     O2        0.869665145344387    0.517823752089057    0.043470594757470  0.0000
  O3     O3        0.354916007492570    0.488043527666385    0.913765267280464  0.0000
  O2     O2        0.141985514445568    0.528854934426087    0.926180759321831  0.0000
  O2     O2        0.761970360023686    0.275547718759642    0.045800541839700  0.0000
  O2     O2        0.745180978094804    0.725594847961912    0.053397885787325  0.0000
  O3     O3        0.231848277953298    0.249458308409242    0.951698423248756  0.0000
  O2     O2        0.258620733405514    0.752023482106025    0.949836836671121  0.0000
