data_c00965.vasp
_audit_creation_method             Generated by GULP
_audit_author_name                 Salvador R. G. Balestra
_symmetry_space_group_name_H-M     'P 1             '
_symmetry_Int_Tables_number        1

loop_
_symmetry_equiv_pos_site_id
_symmetry_equiv_pos_as_xyz
_cell_length_a                       16.9631
_cell_length_b                        7.6188
_cell_length_c                       10.3492
_cell_angle_alpha                   90.5196
_cell_angle_beta                    90.4979
_cell_angle_gamma                   90.1581

loop_
_atom_site_label
_atom_site_type_symbol
_atom_site_fract_x
_atom_site_fract_y
_atom_site_fract_z
_atom_site_charge
  Ge     Ge        0.556730000000016    0.000000000000000    0.122129999999970  0.0000
  Ge     Ge        0.149088892359769    0.330164702884313    0.279964922722359  0.0000
  Ge     Ge        0.828185693422581    0.732434643728898    0.012637177698682  0.0000
  Ge     Ge        0.161274310927341    0.728521917255070    0.964524414168586  0.0000
  Si     Si        0.045086708592799    0.025956158618007    0.364819949164600  0.0000
  Si     Si        0.450138074058180    0.011982698612068    0.369661569517240  0.0000
  Si     Si        0.939847923810348    0.017887248147658    0.613146934465226  0.0000
  Si     Si        0.540806929230899    0.000220595619794    0.635225594334119  0.0000
  Si     Si        0.944051472435607    0.016909679336349    0.105362541551263  0.0000
  Si     Si        0.438158148410920    0.010714572642241    0.886974134145879  0.0000
  Si     Si        0.049085092114584    0.009639558256311    0.863203149630081  0.0000
  Si     Si        0.342846531150529    0.705701163450126    0.269506202880897  0.0000
  Si     Si        0.840950745891260    0.327097903147604    0.700326052695797  0.0000
  Si     Si        0.644664251014906    0.689724933560511    0.715539527280325  0.0000
  Si     Si        0.824897873712386    0.730959136829076    0.704865626517825  0.0000
  Si     Si        0.659602627143475    0.287430348147287    0.710724959945696  0.0000
  Si     Si        0.162018734753811    0.744442870397921    0.269820553785596  0.0000
  Si     Si        0.333303175932156    0.303492923480873    0.277182407888181  0.0000
  Si     Si        0.670746637648430    0.280159494195586    0.010446401219246  0.0000
  Si     Si        0.325280100293510    0.295035144567560    0.973942749344620  0.0000
  Si     Si        0.345023139480373    0.688924570830549    0.966421095870866  0.0000
  Si     Si        0.142047351734222    0.323004412690419    0.976221819893284  0.0000
  Si     Si        0.645004351846830    0.674687184480431    0.018542870946306  0.0000
  Si     Si        0.853439646970419    0.332658819319906    0.999710121444279  0.0000
  O3     O3        0.086065029557189    0.214304259570055    0.377139895954576  0.0000
  O2     O2        0.404216610535165    0.829702461114147    0.344279822999380  0.0000
  O2     O2        0.896916256088167    0.207656741119132    0.610815559114949  0.0000
  O2     O2        0.582171319899222    0.809501332512919    0.639493518129622  0.0000
  O2     O2        0.874350745013684    0.864434306460947    0.617559251577976  0.0000
  O2     O2        0.607774329935587    0.151172363751288    0.626544699814658  0.0000
  O2     O2        0.114200421244795    0.880461558802187    0.359010356783540  0.0000
  O2     O2        0.391292911842752    0.175653344429787    0.353933561254573  0.0000
  O2     O2        0.988871929803394    0.990137199658648    0.484253223215898  0.0000
  O2     O2        0.482831362083923    0.010167953656997    0.514364600578101  0.0000
  O2     O2        0.992884333076460    0.013465720825520    0.235979332711117  0.0000
  O3     O3        0.523770172240209    0.029145953593167    0.276158164429252  0.0000
  O2     O2        0.999475122685165    0.006509214422924    0.732689331484625  0.0000
  O2     O2        0.488552590763811    0.035913940164323    0.760107080393091  0.0000
  O3     O3        0.638804796972731    0.131647312340631    0.101536758506367  0.0000
  O3     O3        0.871632668743355    0.884354090216044    0.113260716582008  0.0000
  O2     O2        0.363996046509807    0.144228470601767    0.886329664929191  0.0000
  O3     O3        0.117039902965020    0.866062524427299    0.855999562357477  0.0000
  O2     O2        0.408251349550829    0.808716626989486    0.892241350318686  0.0000
  O2     O2        0.086633373121450    0.202546880809048    0.884820472724540  0.0000
  O3     O3        0.581775850117690    0.782482614407742    0.098376005387650  0.0000
  O2     O2        0.913093733047197    0.214003729780804    0.081513590226865  0.0000
  O3     O3        0.487497356121665    0.066772004634448    0.012205463306119  0.0000
  O2     O2        0.996167537591673    0.949624502838445    0.984681153831253  0.0000
  O3     O3        0.128171427403817    0.550485656632416    0.288197264280224  0.0000
  O2     O2        0.363788206523056    0.503491487540969    0.297733824727741  0.0000
  O2     O2        0.857085094989968    0.533517380649990    0.679360803710412  0.0000
  O2     O2        0.626521707573213    0.484129278938008    0.689472603376084  0.0000
  O3     O3        0.245047896993027    0.289411037355618    0.327899962655285  0.0000
  O2     O2        0.253976657970576    0.746036603567145    0.314528471887828  0.0000
  O2     O2        0.750299627260316    0.280905850928757    0.665742911551377  0.0000
  O2     O2        0.732320016690047    0.736740309850855    0.666647680396169  0.0000
  O3     O3        0.133247558198920    0.259894068491141    0.122522777280371  0.0000
  O2     O2        0.349868699249270    0.743448763423874    0.117466462876736  0.0000
  O2     O2        0.861013033009696    0.280504504741347    0.848554079241990  0.0000
  O2     O2        0.638707255090171    0.730614234595008    0.867909920398099  0.0000
  O3     O3        0.833855698015870    0.790549454973509    0.852423444842989  0.0000
  O2     O2        0.655923229880282    0.229503839049597    0.860040217754822  0.0000
  O3     O3        0.156701257099055    0.803989367031188    0.121979616582781  0.0000
  O2     O2        0.332810980030635    0.250763808455158    0.125630909066192  0.0000
  O2     O2        0.628737061793591    0.467480670116511    0.036493616466870  0.0000
  O3     O3        0.875198030563839    0.532099079295508    0.026561816555264  0.0000
  O2     O2        0.366604116996584    0.483307559716649    0.947030481680933  0.0000
  O3     O3        0.117763422559316    0.523284679174066    0.959479606841070  0.0000
  O2     O2        0.763365508649200    0.300420657151084    0.040719682621183  0.0000
  O3     O3        0.732741239439864    0.720805047868559    0.065286750988388  0.0000
  O2     O2        0.233606788250145    0.305134169100592    0.935247511398516  0.0000
  O3     O3        0.257891689692702    0.720646509319468    0.914893694788978  0.0000
