data_c00912.vasp
_audit_creation_method             Generated by GULP
_audit_author_name                 Salvador R. G. Balestra
_symmetry_space_group_name_H-M     'P 1             '
_symmetry_Int_Tables_number        1

loop_
_symmetry_equiv_pos_site_id
_symmetry_equiv_pos_as_xyz
_cell_length_a                       17.0535
_cell_length_b                        7.5798
_cell_length_c                       10.3238
_cell_angle_alpha                   89.1977
_cell_angle_beta                    89.9259
_cell_angle_gamma                   90.6975

loop_
_atom_site_label
_atom_site_type_symbol
_atom_site_fract_x
_atom_site_fract_y
_atom_site_fract_z
_atom_site_charge
  Ge     Ge        0.556730000000016    0.000000000000000    0.122129999999970  0.0000
  Ge     Ge        0.150535525080866    0.345063652405083    0.279093022382534  0.0000
  Ge     Ge        0.850185345402304    0.355731023719925    0.695286883791500  0.0000
  Ge     Ge        0.646613191794620    0.673288935082898    0.022328876275873  0.0000
  Si     Si        0.044867576829987    0.032938722970124    0.359735530022629  0.0000
  Si     Si        0.451967129752965    0.032261760671767    0.369493967306688  0.0000
  Si     Si        0.951135913071261    0.045478605485838    0.617281847821112  0.0000
  Si     Si        0.546183550942074    0.027651093623498    0.629722632670104  0.0000
  Si     Si        0.942850027132305    0.023566549663772    0.104455380120388  0.0000
  Si     Si        0.442871531244174    0.036851822657012    0.881941780608280  0.0000
  Si     Si        0.056349722262133    0.033624668846754    0.867158907014001  0.0000
  Si     Si        0.346553980687556    0.726837113677326    0.267627768064832  0.0000
  Si     Si        0.648997266954370    0.718282610360987    0.715878477785708  0.0000
  Si     Si        0.828373952253398    0.764437057653311    0.716525278053424  0.0000
  Si     Si        0.666530639683599    0.312576550435208    0.696991187845069  0.0000
  Si     Si        0.165727870629653    0.759228422156815    0.268332150081681  0.0000
  Si     Si        0.334114817965483    0.319000924184355    0.275261304755884  0.0000
  Si     Si        0.672593961607320    0.274290236239330    0.999171830134388  0.0000
  Si     Si        0.829140524022235    0.732940141496335    0.020879193622783  0.0000
  Si     Si        0.330486507177890    0.318475100259937    0.971018895879082  0.0000
  Si     Si        0.166457019107439    0.748855866595032    0.965790110875951  0.0000
  Si     Si        0.347484056059140    0.717379929998633    0.966465627605527  0.0000
  Si     Si        0.149523266796000    0.347232207902743    0.970983990527268  0.0000
  Si     Si        0.853594793816604    0.340906468718033    0.001573224139400  0.0000
  O3     O3        0.082122542928933    0.226944588087503    0.368031137722845  0.0000
  O2     O2        0.407578234749773    0.845956022654468    0.345852969483676  0.0000
  O3     O3        0.917875864544682    0.241482529253231    0.605732065558644  0.0000
  O2     O2        0.589230408703915    0.839195879121561    0.633691569134078  0.0000
  O2     O2        0.874908708355321    0.922573488110714    0.645238867345036  0.0000
  O2     O2        0.610753515996821    0.184673838535625    0.613259599827420  0.0000
  O2     O2        0.118649384625658    0.901837219215643    0.349401467276872  0.0000
  O2     O2        0.391608261055615    0.192563824265951    0.354413958096893  0.0000
  O2     O2        0.993245172523607    0.988361077849724    0.485815902089401  0.0000
  O2     O2        0.485054224960674    0.031301177111391    0.513577629614703  0.0000
  O2     O2        0.989402046475611    0.007845192677932    0.236846580873760  0.0000
  O3     O3        0.524673924101015    0.054818236125333    0.273362784317903  0.0000
  O2     O2        0.014950723281063    0.022875755772005    0.729814525784840  0.0000
  O2     O2        0.497089283840066    0.063239978377330    0.758410886331061  0.0000
  O3     O3        0.643799557073675    0.109599178355305    0.082286092526390  0.0000
  O2     O2        0.874344822922572    0.875979808091792    0.107079544186724  0.0000
  O2     O2        0.373232328205263    0.179607762198319    0.880864961092656  0.0000
  O2     O2        0.124419115425342    0.887719324856540    0.871786841856558  0.0000
  O2     O2        0.406097671323604    0.838302123185727    0.880892585892209  0.0000
  O2     O2        0.092709476614374    0.229898803700975    0.881748661055458  0.0000
  O1     O1        0.579793751848183    0.781940825561891    0.114001302282347  0.0000
  O2     O2        0.907300848531756    0.219347813347975    0.093529661840156  0.0000
  O3     O3        0.490125597737195    0.074844728146573    0.010846351491802  0.0000
  O2     O2        0.997203456564427    0.983395240214040    0.982298536301819  0.0000
  O3     O3        0.134548549313106    0.565682424737190    0.303171483987905  0.0000
  O2     O2        0.361314478661369    0.521438319462289    0.298212759715146  0.0000
  O3     O3        0.866369898059321    0.580046461750877    0.680172789886730  0.0000
  O2     O2        0.633321298519240    0.511523873098568    0.688372980868776  0.0000
  O3     O3        0.245533403396455    0.294600363200237    0.322497524315399  0.0000
  O2     O2        0.257734548001928    0.775486532914834    0.304739887088051  0.0000
  O3     O3        0.755120477534235    0.311108446234129    0.646565173384050  0.0000
  O2     O2        0.737742662472598    0.767443115227961    0.671260757237113  0.0000
  O3     O3        0.135001852191670    0.292796440006511    0.118865650216311  0.0000
  O2     O2        0.362386033934405    0.767433963832119    0.115993805197423  0.0000
  O3     O3        0.868451694257072    0.291565230337744    0.853745715749458  0.0000
  O3     O3        0.635892614377678    0.755407276134741    0.865865451510164  0.0000
  O2     O2        0.828324559160127    0.794040831296319    0.870625044139024  0.0000
  O2     O2        0.666684892213091    0.241459547728551    0.845128213188399  0.0000
  O2     O2        0.156060036984747    0.800857306753078    0.115406614378625  0.0000
  O2     O2        0.338420710268744    0.272122777888783    0.123235955335319  0.0000
  O3     O3        0.625385926416598    0.450777077447412    0.032035934656437  0.0000
  O2     O2        0.874249086718800    0.545424209045494    0.029954494780284  0.0000
  O2     O2        0.367269014654565    0.513256593890107    0.943066053323822  0.0000
  O2     O2        0.130337963653100    0.553136377458607    0.945841178474470  0.0000
  O2     O2        0.762661619145105    0.312041053221656    0.035446310035318  0.0000
  O3     O3        0.741715342491613    0.714348664514036    0.073138147833005  0.0000
  O2     O2        0.239485554169435    0.313651668656460    0.932753752481626  0.0000
  O2     O2        0.257908201824229    0.753456646643934    0.928413305676004  0.0000
