data_c00957.vasp
_audit_creation_method             Generated by GULP
_audit_author_name                 Salvador R. G. Balestra
_symmetry_space_group_name_H-M     'P 1             '
_symmetry_Int_Tables_number        1

loop_
_symmetry_equiv_pos_site_id
_symmetry_equiv_pos_as_xyz
_cell_length_a                       16.9432
_cell_length_b                        7.6184
_cell_length_c                       10.3505
_cell_angle_alpha                   90.5333
_cell_angle_beta                    90.5967
_cell_angle_gamma                   90.4164

loop_
_atom_site_label
_atom_site_type_symbol
_atom_site_fract_x
_atom_site_fract_y
_atom_site_fract_z
_atom_site_charge
  Ge     Ge        0.556730000000016    0.000000000000000    0.122129999999970  0.0000
  Ge     Ge        0.150000098221486    0.338542843019914    0.274164863580537  0.0000
  Ge     Ge        0.673582114155161    0.283256081818964    0.007659624672465  0.0000
  Ge     Ge        0.826947944539504    0.752625252460184    0.006297312659044  0.0000
  Si     Si        0.044292291977305    0.034711724569607    0.358285262228071  0.0000
  Si     Si        0.449615808838528    0.020114985405366    0.369839615123913  0.0000
  Si     Si        0.944474802532985    0.025637831151331    0.612942111618588  0.0000
  Si     Si        0.544390391317541    0.006492904621068    0.630158173908136  0.0000
  Si     Si        0.942111599669867    0.037949851683855    0.100895941225962  0.0000
  Si     Si        0.441572323612661    0.025020300613575    0.882497096285739  0.0000
  Si     Si        0.050931483125315    0.013596261160486    0.864105802657356  0.0000
  Si     Si        0.343128173985930    0.716856624408706    0.266887156053908  0.0000
  Si     Si        0.844676636480570    0.338534684921098    0.700488300770787  0.0000
  Si     Si        0.647117818666569    0.695297660364341    0.707223533397953  0.0000
  Si     Si        0.826831444820715    0.740997933914031    0.699160446678674  0.0000
  Si     Si        0.664530250782123    0.291416080267826    0.702114621858538  0.0000
  Si     Si        0.160361104139035    0.748903530132624    0.264136183867663  0.0000
  Si     Si        0.334986008671417    0.312409666851122    0.270477113443029  0.0000
  Si     Si        0.328996147004334    0.309403979509270    0.966892865362224  0.0000
  Si     Si        0.161735145118674    0.731596827167712    0.963093463084107  0.0000
  Si     Si        0.344612657342286    0.707646539694680    0.966837900053746  0.0000
  Si     Si        0.146535075994738    0.330139185988645    0.967279612089393  0.0000
  Si     Si        0.643364696089328    0.680009498049529    0.009192110641968  0.0000
  Si     Si        0.856783977591181    0.357916309448578    0.002911721009826  0.0000
  O3     O3        0.085711113479030    0.222644381656466    0.368562934041079  0.0000
  O2     O2        0.400537901110099    0.839931438070932    0.350824782420314  0.0000
  O2     O2        0.905057973698592    0.218428008167945    0.620111583954658  0.0000
  O2     O2        0.584476111088244    0.813921793391069    0.629645215406163  0.0000
  O2     O2        0.876674078489418    0.876343070173632    0.613558613915713  0.0000
  O2     O2        0.611834638580149    0.156400217591128    0.616129808704212  0.0000
  O2     O2        0.114126498250537    0.891965170791437    0.347640881779985  0.0000
  O2     O2        0.393570396002648    0.187305686460561    0.348277663133233  0.0000
  O2     O2        0.990757972143626    0.001359293560691    0.481006562301543  0.0000
  O2     O2        0.482156394870297    0.022168395444522    0.514830001940493  0.0000
  O2     O2        0.989302156508205    0.017989356765939    0.232526853351589  0.0000
  O3     O3        0.523251230982370    0.025783116618133    0.276076326931942  0.0000
  O2     O2        0.006965691126906    0.999614344748865    0.728014326822842  0.0000
  O2     O2        0.496719382793561    0.040048206130407    0.760258161907987  0.0000
  O1     O1        0.640442631286565    0.124529185949834    0.106422438153055  0.0000
  O3     O3        0.864521817105548    0.918047593091228    0.102829665242193  0.0000
  O2     O2        0.372499354011677    0.170172785475469    0.876274670071477  0.0000
  O2     O2        0.118198523937265    0.864873759227867    0.867868016495538  0.0000
  O2     O2        0.403074119154359    0.829504885336777    0.885219597200890  0.0000
  O2     O2        0.089238300176254    0.207753122416331    0.879427898937548  0.0000
  O3     O3        0.579063053597651    0.784196936595971    0.089389970561583  0.0000
  O2     O2        0.920149213516933    0.241673694598045    0.080522459811864  0.0000
  O3     O3        0.490286339155999    0.076263999412355    0.009712833923958  0.0000
  O2     O2        0.991389519724650    0.966808943643851    0.978760854782646  0.0000
  O3     O3        0.129049317944643    0.557000769361604    0.295776249638583  0.0000
  O2     O2        0.361974680714088    0.514249169548296    0.295142304941789  0.0000
  O2     O2        0.861778547372358    0.545101396940267    0.678597165160169  0.0000
  O2     O2        0.629477966619211    0.487875252702980    0.686932990535877  0.0000
  O3     O3        0.246119074461457    0.290992007437134    0.317165842702786  0.0000
  O2     O2        0.253014542579555    0.759243079370322    0.301602948689260  0.0000
  O2     O2        0.755401859470126    0.292072630074338    0.654945420177319  0.0000
  O2     O2        0.734716991672347    0.740090847900633    0.655975476910580  0.0000
  O3     O3        0.133496109195014    0.278855930756038    0.114690640817660  0.0000
  O2     O2        0.359313044098115    0.758517290997089    0.116885524742544  0.0000
  O2     O2        0.855767692797152    0.298148444051605    0.851858496148557  0.0000
  O2     O2        0.641623507358741    0.741345557058472    0.858910099633209  0.0000
  O3     O3        0.831417442721383    0.807404987625316    0.845593767113844  0.0000
  O3     O3        0.664017750899807    0.222318111606988    0.847224917542535  0.0000
  O2     O2        0.150268210997553    0.789413617871641    0.111895196938546  0.0000
  O2     O2        0.338482642158064    0.264704582163564    0.118272746008014  0.0000
  O3     O3        0.622390595529567    0.477653415907069    0.023673311607469  0.0000
  O3     O3        0.879481003574920    0.559239740280660    0.022159051361432  0.0000
  O2     O2        0.364317660286170    0.503847193692070    0.940815286482334  0.0000
  O2     O2        0.126875499419468    0.534900311070690    0.943318931686970  0.0000
  O3     O3        0.769655369550303    0.324581372506564    0.054095286171511  0.0000
  O3     O3        0.731908350042834    0.722066282708800    0.058185718971623  0.0000
  O2     O2        0.237126769111900    0.299360956451090    0.928721092118843  0.0000
  O2     O2        0.253893159805433    0.740376676050889    0.928218495472402  0.0000
