data_c00907.vasp
_audit_creation_method             Generated by GULP
_audit_author_name                 Salvador R. G. Balestra
_symmetry_space_group_name_H-M     'P 1             '
_symmetry_Int_Tables_number        1

loop_
_symmetry_equiv_pos_site_id
_symmetry_equiv_pos_as_xyz
_cell_length_a                       17.1401
_cell_length_b                        7.6215
_cell_length_c                       10.3058
_cell_angle_alpha                   89.7319
_cell_angle_beta                    91.6330
_cell_angle_gamma                   89.4509

loop_
_atom_site_label
_atom_site_type_symbol
_atom_site_fract_x
_atom_site_fract_y
_atom_site_fract_z
_atom_site_charge
  Ge     Ge        0.556730000000016    0.000000000000000    0.122129999999970  0.0000
  Ge     Ge        0.162278494631339    0.288186460496158    0.276703022036975  0.0000
  Ge     Ge        0.826367228997966    0.273839011506263    0.699154955650739  0.0000
  Ge     Ge        0.852889966004078    0.660676054775753    0.016202513692720  0.0000
  Si     Si        0.047950527794943    0.000218576046679    0.365600786520732  0.0000
  Si     Si        0.451286984779097    0.004766195766753    0.368394211374330  0.0000
  Si     Si        0.943965054716033    0.986421490296036    0.614311889537491  0.0000
  Si     Si        0.541685264142994    0.010568804476128    0.635690098398922  0.0000
  Si     Si        0.943660382808555    0.979942921949933    0.112680397594752  0.0000
  Si     Si        0.436762824014923    0.992779183674464    0.882974443278730  0.0000
  Si     Si        0.049526715297284    0.997595708894277    0.870570996550523  0.0000
  Si     Si        0.335365506255569    0.716292732034649    0.264019262504844  0.0000
  Si     Si        0.661499059193841    0.721690364377791    0.717039183370703  0.0000
  Si     Si        0.842191281455465    0.685879836566333    0.710041841065023  0.0000
  Si     Si        0.644826854567383    0.318808331335263    0.706746114956105  0.0000
  Si     Si        0.155103102728550    0.700914941832893    0.266823023348390  0.0000
  Si     Si        0.345346928887047    0.311672075462090    0.273758521167502  0.0000
  Si     Si        0.650579058297628    0.315404260307276    0.009748586575506  0.0000
  Si     Si        0.339582392828933    0.308387832131799    0.968948772906794  0.0000
  Si     Si        0.147972867640394    0.684539092660910    0.964514173711674  0.0000
  Si     Si        0.327899832198618    0.705547418824436    0.960463136982789  0.0000
  Si     Si        0.159349434601214    0.282274507826236    0.968207691127012  0.0000
  Si     Si        0.670162866459730    0.710813064650317    0.019641472967976  0.0000
  Si     Si        0.829490111568784    0.255933803967443    0.006946207513895  0.0000
  O3     O3        0.104576237987408    0.165088049900747    0.374474512452506  0.0000
  O2     O2        0.388895028174417    0.851041656988984    0.342772949518068  0.0000
  O3     O3        0.881886539226217    0.143920645328985    0.601422340120995  0.0000
  O2     O2        0.610253872684870    0.863258406133609    0.635366206725237  0.0000
  O2     O2        0.896167435204913    0.805917493299798    0.621389476130451  0.0000
  O2     O2        0.579869404416568    0.203802214194296    0.630124486523735  0.0000
  O2     O2        0.101400772005596    0.827972944775224    0.348925839841452  0.0000
  O2     O2        0.409642172471742    0.194620424740590    0.350669022136593  0.0000
  O2     O2        0.999351911823875    0.977090473771539    0.493348837864547  0.0000
  O2     O2        0.483007544296745    0.985598830969198    0.515016728734329  0.0000
  O2     O2        0.987284411053717    0.028505866285227    0.245934179559596  0.0000
  O3     O3        0.524169959781844    0.989021843660545    0.277301769775210  0.0000
  O2     O2        0.998549473893192    0.018650431799222    0.740678667467819  0.0000
  O2     O2        0.492572124766226    0.985641036834044    0.763423055591972  0.0000
  O3     O3        0.591696119125240    0.207349530022477    0.093130385333365  0.0000
  O3     O3        0.918963246624966    0.778096970829802    0.109935541963019  0.0000
  O2     O2        0.395906952340422    0.184469383526574    0.887777996687511  0.0000
  O2     O2        0.089929625045447    0.804471164471510    0.875974287161295  0.0000
  O2     O2        0.371149663933773    0.841845738923649    0.868973624424493  0.0000
  O2     O2        0.114206948103057    0.150056929498119    0.872315564894702  0.0000
  O3     O3        0.630762157320373    0.848101413011428    0.112049748631275  0.0000
  O2     O2        0.866393316707444    0.102535852540794    0.097846997639389  0.0000
  O3     O3        0.483227522758772    0.947303633348591    0.014536815362934  0.0000
  O2     O2        0.997150555928005    0.029768839257765    0.993527440781814  0.0000
  O3     O3        0.134868913581559    0.503420810588882    0.298897096701589  0.0000
  O2     O2        0.362551653470442    0.517464557755171    0.297514252457323  0.0000
  O3     O3        0.861131318815844    0.484309345198097    0.686193553752485  0.0000
  O2     O2        0.627555527980778    0.527226589501472    0.690644992256642  0.0000
  O3     O3        0.259898325966262    0.265459355393090    0.319681040643254  0.0000
  O2     O2        0.245544607410639    0.741671207389844    0.302997379407608  0.0000
  O3     O3        0.728924317120256    0.274285156376713    0.651902971009588  0.0000
  O2     O2        0.750974915771173    0.727048318504391    0.673118477990277  0.0000
  O3     O3        0.150058993924700    0.226373161780155    0.116602122866297  0.0000
  O2     O2        0.341697174980589    0.755053163817512    0.111157009064990  0.0000
  O3     O3        0.832641461318302    0.200489044719597    0.857475868052135  0.0000
  O2     O2        0.660641424711199    0.771861752689933    0.868964612373547  0.0000
  O3     O3        0.860496865193449    0.734237750254213    0.858652905512364  0.0000
  O2     O2        0.641175071956892    0.264714732031506    0.858111923145604  0.0000
  O2     O2        0.138388514155722    0.739395697014722    0.113985316140114  0.0000
  O2     O2        0.352856489757057    0.268337165921565    0.121372501960124  0.0000
  O2     O2        0.630718080733972    0.519747017931830    0.031524552632402  0.0000
  O3     O3        0.873837080909214    0.439287497771117    0.026654021731979  0.0000
  O2     O2        0.360470937944713    0.509257590311723    0.936165681678669  0.0000
  O2     O2        0.125941702673005    0.480629115941635    0.946704127839028  0.0000
  O2     O2        0.740566388687140    0.278680065489873    0.051728368417702  0.0000
  O3     O3        0.759618124401377    0.697589624373435    0.065064898755138  0.0000
  O2     O2        0.249740276227291    0.273394787873300    0.930607762192377  0.0000
  O2     O2        0.236320050477798    0.715608429755291    0.922920230700713  0.0000
