data_c00921.vasp
_audit_creation_method             Generated by GULP
_audit_author_name                 Salvador R. G. Balestra
_symmetry_space_group_name_H-M     'P 1             '
_symmetry_Int_Tables_number        1

loop_
_symmetry_equiv_pos_site_id
_symmetry_equiv_pos_as_xyz
_cell_length_a                       17.0235
_cell_length_b                        7.6094
_cell_length_c                       10.3642
_cell_angle_alpha                   91.1135
_cell_angle_beta                    90.3631
_cell_angle_gamma                   89.9990

loop_
_atom_site_label
_atom_site_type_symbol
_atom_site_fract_x
_atom_site_fract_y
_atom_site_fract_z
_atom_site_charge
  Ge     Ge        0.556730000000016    0.000000000000000    0.122129999999970  0.0000
  Ge     Ge        0.142952673970095    0.327163234147425    0.265407794449329  0.0000
  Ge     Ge        0.640811658849503    0.681162000785457    0.706436328592776  0.0000
  Ge     Ge        0.163194824970970    0.728373331503403    0.953777363602509  0.0000
  Si     Si        0.039064366215661    0.020363379306217    0.349442629973942  0.0000
  Si     Si        0.443961282992577    0.009248250520193    0.365254559031688  0.0000
  Si     Si        0.940316714888391    0.004013128894584    0.604718836700236  0.0000
  Si     Si        0.535553324835566    0.988864823918338    0.626641741754075  0.0000
  Si     Si        0.943584935241500    0.007849202526021    0.087495854969298  0.0000
  Si     Si        0.438729196681581    0.000750943701487    0.884531989153705  0.0000
  Si     Si        0.053169478445634    0.009321836439836    0.848961793143971  0.0000
  Si     Si        0.339235544645926    0.699847886749785    0.266529826671082  0.0000
  Si     Si        0.838240476011739    0.311479309380680    0.694131295322173  0.0000
  Si     Si        0.824543733073786    0.713692217362279    0.693009632082492  0.0000
  Si     Si        0.656968628297494    0.268048355482157    0.711003325001749  0.0000
  Si     Si        0.159435416361084    0.742495934079453    0.258629434583140  0.0000
  Si     Si        0.326438604493908    0.297810153055426    0.271983410233305  0.0000
  Si     Si        0.669224759081319    0.278749325221068    0.009039115492766  0.0000
  Si     Si        0.828818221448755    0.719674167143891    0.996722780405837  0.0000
  Si     Si        0.324593857271132    0.287562907538045    0.968875902288665  0.0000
  Si     Si        0.345993654092546    0.680470134540043    0.963718256219716  0.0000
  Si     Si        0.142450533074548    0.323504850879987    0.961793909786779  0.0000
  Si     Si        0.648032481982364    0.680582448913743    0.010830489118686  0.0000
  Si     Si        0.850147978178455    0.324152173754847    0.993800395675248  0.0000
  O3     O3        0.076152752896817    0.213358549701071    0.355808465053552  0.0000
  O2     O2        0.400112885456798    0.822893134920510    0.344030286920487  0.0000
  O2     O2        0.893073267769842    0.187914363593623    0.605645051751779  0.0000
  O3     O3        0.572076674677839    0.795664923334107    0.619280766394115  0.0000
  O2     O2        0.879228282708671    0.843841430462191    0.614062289295825  0.0000
  O2     O2        0.609023232504019    0.124338837834104    0.627155735155127  0.0000
  O2     O2        0.111236545492183    0.882529313800094    0.344857459416104  0.0000
  O2     O2        0.382833321928029    0.167900733995517    0.348315712598620  0.0000
  O2     O2        0.986310711665714    0.983287081481055    0.472333189161751  0.0000
  O2     O2        0.476835299126125    0.021917022763096    0.509621075075931  0.0000
  O2     O2        0.984183282754112    0.991911023217002    0.224706358184388  0.0000
  O3     O3        0.517660758916061    0.024773301458828    0.272602940014249  0.0000
  O2     O2        0.002627551831125    0.999666244991693    0.720113919922983  0.0000
  O2     O2        0.486065959611542    0.023894430530957    0.755093631041354  0.0000
  O3     O3        0.633268823143658    0.147717509144256    0.108602120484221  0.0000
  O2     O2        0.872547119721220    0.868723319129479    0.080427994508689  0.0000
  O2     O2        0.363975213002190    0.132509861781328    0.885143939074712  0.0000
  O3     O3        0.121733146677480    0.866670866141861    0.843981734961085  0.0000
  O2     O2        0.410700494341353    0.797602769594933    0.892277830597881  0.0000
  O2     O2        0.089422157252712    0.204198318938503    0.865489625444521  0.0000
  O3     O3        0.592163487888670    0.788120306010760    0.105884562439107  0.0000
  O2     O2        0.911591799111727    0.206745469260011    0.072601595651627  0.0000
  O3     O3        0.489241595010664    0.057709059569370    0.007677655334882  0.0000
  O2     O2        0.003085717183664    0.955173705405061    0.973945636804785  0.0000
  O3     O3        0.124509970964341    0.549364774764166    0.274626093535008  0.0000
  O2     O2        0.357921736038281    0.496832251001882    0.295729692885778  0.0000
  O2     O2        0.854230155833304    0.514723734310264    0.663694244809692  0.0000
  O3     O3        0.622320667578753    0.459659678661501    0.688838638713839  0.0000
  O3     O3        0.237537892551683    0.284843317172266    0.318487798288889  0.0000
  O2     O2        0.250159931093361    0.743361939387609    0.307692420030404  0.0000
  O2     O2        0.747511801029663    0.265620041054714    0.665382109892172  0.0000
  O3     O3        0.734381773833588    0.729025256427069    0.652663305856505  0.0000
  O3     O3        0.130210167933687    0.259010066523204    0.106618020408848  0.0000
  O2     O2        0.349255686968307    0.735151749214824    0.115033704035942  0.0000
  O2     O2        0.859496497175066    0.274326128982304    0.842918846141369  0.0000
  O3     O3        0.630315436149567    0.743303935864853    0.866477416467552  0.0000
  O2     O2        0.831466820249073    0.761086505929802    0.845192672036953  0.0000
  O2     O2        0.653724669820525    0.214458313631515    0.861287330152268  0.0000
  O3     O3        0.157288725062012    0.802827474310856    0.111428536466084  0.0000
  O2     O2        0.328299338163073    0.245471472188661    0.120424634106850  0.0000
  O2     O2        0.631958602778586    0.473301235542228    0.024668100498090  0.0000
  O2     O2        0.869238299456419    0.529757121135109    0.020386095591560  0.0000
  O2     O2        0.367599945942137    0.474151682531513    0.944043153153851  0.0000
  O3     O3        0.118899192200026    0.524034558108228    0.945626551669044  0.0000
  O2     O2        0.762107987535019    0.285233968549826    0.038025837544726  0.0000
  O2     O2        0.739384181986741    0.719131073950535    0.043713514000850  0.0000
  O2     O2        0.234324166720745    0.302395963276986    0.925379766624153  0.0000
  O3     O3        0.260352472856117    0.715153469016274    0.908690163987611  0.0000
