data_c00931.vasp
_audit_creation_method             Generated by GULP
_audit_author_name                 Salvador R. G. Balestra
_symmetry_space_group_name_H-M     'P 1             '
_symmetry_Int_Tables_number        1

loop_
_symmetry_equiv_pos_site_id
_symmetry_equiv_pos_as_xyz
_cell_length_a                       17.0853
_cell_length_b                        7.6241
_cell_length_c                       10.3088
_cell_angle_alpha                   91.0629
_cell_angle_beta                    91.0792
_cell_angle_gamma                   89.6477

loop_
_atom_site_label
_atom_site_type_symbol
_atom_site_fract_x
_atom_site_fract_y
_atom_site_fract_z
_atom_site_charge
  Ge     Ge        0.556730000000016    0.000000000000000    0.122129999999970  0.0000
  Ge     Ge        0.147261968398902    0.328304170088669    0.268696927909806  0.0000
  Ge     Ge        0.824364665893384    0.715642750153177    0.693816681114535  0.0000
  Ge     Ge        0.161644012923249    0.724061603182845    0.953430038443246  0.0000
  Si     Si        0.044489007676616    0.025239969345277    0.358146325180219  0.0000
  Si     Si        0.447033148757908    0.004302506510519    0.364819450088980  0.0000
  Si     Si        0.940289914849048    0.002050683464460    0.606434967886377  0.0000
  Si     Si        0.536007317954501    0.991420261870955    0.632471568824031  0.0000
  Si     Si        0.943853293737137    0.005052630265342    0.099757223603270  0.0000
  Si     Si        0.435802265589990    0.996647417957148    0.885003756812713  0.0000
  Si     Si        0.049008016580951    0.006035024634993    0.858845030670827  0.0000
  Si     Si        0.340872181049491    0.697589489166036    0.263568134304245  0.0000
  Si     Si        0.835866281366739    0.306070636327364    0.692068913837020  0.0000
  Si     Si        0.641208933019076    0.683492836677132    0.709109628969629  0.0000
  Si     Si        0.654825683654441    0.277582302228584    0.709405613936040  0.0000
  Si     Si        0.162245293009726    0.742351708792240    0.260408752537269  0.0000
  Si     Si        0.329875879454833    0.296683281272348    0.271457077517731  0.0000
  Si     Si        0.668477724077201    0.280903451941437    0.009981691675637  0.0000
  Si     Si        0.831408724815524    0.718793897963600    0.002887064749138  0.0000
  Si     Si        0.322598486718096    0.284761727235047    0.966281729875532  0.0000
  Si     Si        0.343218846682567    0.676575653332389    0.958323250413030  0.0000
  Si     Si        0.141051010785207    0.320291248768718    0.963105504583377  0.0000
  Si     Si        0.651183174308483    0.680804147989815    0.011886566774643  0.0000
  Si     Si        0.848661668779568    0.318149848347254    0.994467682689147  0.0000
  O3     O3        0.082313994445105    0.216157055942776    0.361382513654539  0.0000
  O2     O2        0.403187663099498    0.821015749528168    0.336601342191703  0.0000
  O2     O2        0.888704220189227    0.180019576881710    0.602981909268359  0.0000
  O2     O2        0.576657384943995    0.799440649598742    0.633150941690081  0.0000
  O3     O3        0.880283348909996    0.842773923981451    0.597100018997163  0.0000
  O2     O2        0.602162397884217    0.141907720980309    0.625687618563148  0.0000
  O2     O2        0.114671850044209    0.883589925194781    0.345846050072271  0.0000
  O2     O2        0.387595476960609    0.166688146145326    0.346965111195775  0.0000
  O2     O2        0.000222499103387    0.994173027769371    0.490398067866832  0.0000
  O2     O2        0.476996455442293    0.005218432834079    0.512246299602285  0.0000
  O2     O2        0.981942364845455    0.001956677386965    0.241402764719345  0.0000
  O3     O3        0.521724042764570    0.020808769636052    0.275911000467914  0.0000
  O2     O2        0.989208694917145    0.991859540887071    0.739962087751795  0.0000
  O2     O2        0.486086638329295    0.025096450986884    0.759711412126359  0.0000
  O3     O3        0.631594777351771    0.148190609120767    0.106492961250333  0.0000
  O2     O2        0.876766270590541    0.857497828902915    0.095246556982432  0.0000
  O2     O2        0.361388665488187    0.129178312682599    0.882621426339941  0.0000
  O3     O3        0.116870626059685    0.862741582700824    0.845632706217220  0.0000
  O2     O2        0.406964555837513    0.794609132411473    0.887376741916844  0.0000
  O2     O2        0.086114356049059    0.200199902281609    0.869226334048744  0.0000
  O3     O3        0.593578545391053    0.790426782431480    0.100485075184410  0.0000
  O2     O2        0.909383630208760    0.199941518262891    0.075441062532956  0.0000
  O3     O3        0.484038885672270    0.050234066428108    0.012948532279478  0.0000
  O2     O2        0.006839485647191    0.953820658887946    0.991852058053902  0.0000
  O3     O3        0.127915703731941    0.549971577135632    0.278212903496420  0.0000
  O2     O2        0.360987729816195    0.495420251593663    0.293944366887556  0.0000
  O3     O3        0.853953508557635    0.503492184043710    0.660403834312330  0.0000
  O2     O2        0.624901318274384    0.476264280961699    0.686609603305511  0.0000
  O3     O3        0.242095525734045    0.284872042127555    0.320676630733453  0.0000
  O2     O2        0.253166159850092    0.742455431406605    0.309387217165640  0.0000
  O2     O2        0.744471127771964    0.261535212181176    0.664554060480950  0.0000
  O3     O3        0.725786610406826    0.731524881093900    0.657481448531555  0.0000
  O3     O3        0.131904155288209    0.258942451445985    0.109830627629864  0.0000
  O2     O2        0.346150954568902    0.729949566762910    0.110486723942979  0.0000
  O2     O2        0.856904806723154    0.270158330615327    0.842873981763085  0.0000
  O2     O2        0.636119014370958    0.731997050415388    0.861933189384043  0.0000
  O3     O3        0.838347404197484    0.774031291139890    0.854770053634346  0.0000
  O2     O2        0.650307761794032    0.225397526048073    0.860182451590061  0.0000
  O3     O3        0.158942336805537    0.799330625694652    0.111839582608486  0.0000
  O2     O2        0.328489133850194    0.244984687336325    0.118972992454375  0.0000
  O2     O2        0.634389321406513    0.476309927638058    0.033607563769093  0.0000
  O2     O2        0.867961178516051    0.523247582176093    0.019667450769673  0.0000
  O2     O2        0.364668368951459    0.470389179439113    0.938618501631048  0.0000
  O3     O3        0.117367264372634    0.520662747299759    0.945977932281650  0.0000
  O2     O2        0.761280525216581    0.278718702158995    0.038377258113395  0.0000
  O2     O2        0.741629425561687    0.721885480523982    0.046828866352904  0.0000
  O2     O2        0.231949880794199    0.297861428095591    0.923761176812183  0.0000
  O3     O3        0.257197520914821    0.710958567811847    0.903128811863218  0.0000
