data_c00955.vasp
_audit_creation_method             Generated by GULP
_audit_author_name                 Salvador R. G. Balestra
_symmetry_space_group_name_H-M     'P 1             '
_symmetry_Int_Tables_number        1

loop_
_symmetry_equiv_pos_site_id
_symmetry_equiv_pos_as_xyz
_cell_length_a                       17.0325
_cell_length_b                        7.5989
_cell_length_c                       10.3300
_cell_angle_alpha                   90.6450
_cell_angle_beta                    89.4202
_cell_angle_gamma                   90.1589

loop_
_atom_site_label
_atom_site_type_symbol
_atom_site_fract_x
_atom_site_fract_y
_atom_site_fract_z
_atom_site_charge
  Ge     Ge        0.556730000000016    0.000000000000000    0.122129999999970  0.0000
  Ge     Ge        0.148597791207718    0.348024674499871    0.292132094286786  0.0000
  Ge     Ge        0.338612221368982    0.307274812523396    0.296136267653761  0.0000
  Ge     Ge        0.652266630721366    0.670840044373747    0.037495170245416  0.0000
  Si     Si        0.047960278886695    0.034294917450440    0.372188219680605  0.0000
  Si     Si        0.455245174182467    0.025746981020175    0.380178146035224  0.0000
  Si     Si        0.955582067362140    0.014142372807849    0.634763314553785  0.0000
  Si     Si        0.556076293356182    0.997893807620426    0.631724475987708  0.0000
  Si     Si        0.949539031717261    0.014553474675159    0.116633035051298  0.0000
  Si     Si        0.448291835114276    0.011746384540387    0.876235826659456  0.0000
  Si     Si        0.064756358155593    0.015904276213996    0.879648986584628  0.0000
  Si     Si        0.351638442246423    0.718327947640184    0.282140552844947  0.0000
  Si     Si        0.853026389825589    0.323249358527592    0.719043784523045  0.0000
  Si     Si        0.657489893191621    0.693600851277859    0.730260924908468  0.0000
  Si     Si        0.837114535711780    0.726019821791173    0.727201542588346  0.0000
  Si     Si        0.672982627142500    0.286560228096040    0.724620991209054  0.0000
  Si     Si        0.169106981817052    0.756938477387634    0.277228402453553  0.0000
  Si     Si        0.677005252425425    0.269942531097744    0.026190393964489  0.0000
  Si     Si        0.835997411350029    0.723233504721576    0.031186056702251  0.0000
  Si     Si        0.338854774181539    0.294591045387649    0.988573983452235  0.0000
  Si     Si        0.174326774272222    0.731773100139493    0.974370739584178  0.0000
  Si     Si        0.355273401402216    0.697256851110383    0.981582804668022  0.0000
  Si     Si        0.155655723489963    0.332741619552054    0.984351988193672  0.0000
  Si     Si        0.857537780689696    0.330116287795285    0.020202639040896  0.0000
  O3     O3        0.079087097593742    0.232252024425207    0.379152789237438  0.0000
  O2     O2        0.407860193685588    0.842972897515557    0.365181868267419  0.0000
  O2     O2        0.913049804723469    0.204300204932246    0.635031298031301  0.0000
  O2     O2        0.598083994652226    0.809415677121841    0.646090516903305  0.0000
  O2     O2        0.889852158711069    0.863282889500312    0.648925479556404  0.0000
  O2     O2        0.619972907715982    0.154467572542549    0.640660587434005  0.0000
  O2     O2        0.125531532564968    0.912800902185048    0.354586005189052  0.0000
  O3     O3        0.392669351342954    0.179980331478341    0.399513071689248  0.0000
  O2     O2        0.000486782336826    0.983536443303939    0.500375303526083  0.0000
  O2     O2        0.518581729200747    0.005324407004233    0.491254594822620  0.0000
  O2     O2        0.990880600692209    0.999410445640629    0.252780124837496  0.0000
  O3     O3        0.502872017940312    0.072663839667730    0.250604478640692  0.0000
  O2     O2        0.019782513473965    0.001590241003651    0.745999971804439  0.0000
  O2     O2        0.485084838580337    0.023184844122998    0.733552950797856  0.0000
  O3     O3        0.645211544285705    0.114900873653925    0.111650664116198  0.0000
  O2     O2        0.880558060404032    0.870576356471268    0.114217233090001  0.0000
  O2     O2        0.378968491669577    0.155980088209030    0.890299947852008  0.0000
  O2     O2        0.132782301790817    0.868094699590600    0.879942330793297  0.0000
  O2     O2        0.414868125295954    0.813122416248960    0.896366704856168  0.0000
  O2     O2        0.102475569777062    0.210370386798521    0.891859152732857  0.0000
  O1     O1        0.584366165096830    0.784635186781874    0.127613252282170  0.0000
  O2     O2        0.915012151792525    0.210929989975342    0.103646719316690  0.0000
  O3     O3        0.512213485574653    0.059739714361094    0.980691283809749  0.0000
  O2     O2        0.008237329282209    0.970977199013355    0.999198161444737  0.0000
  O3     O3        0.132355361496820    0.570570981518059    0.312905470414116  0.0000
  O3     O3        0.371950977836073    0.520632981502083    0.312879279799681  0.0000
  O2     O2        0.869097056710899    0.529689172953255    0.695600244932314  0.0000
  O2     O2        0.641662814305595    0.485401059748322    0.707398067203559  0.0000
  O1     O1        0.241773998737586    0.298164028011521    0.338377952855955  0.0000
  O2     O2        0.260724705941288    0.758963214938235    0.316279522567018  0.0000
  O2     O2        0.763922824588104    0.275788100478594    0.678843147182307  0.0000
  O2     O2        0.746473370724238    0.739549856527639    0.684886463936887  0.0000
  O3     O3        0.135672434308501    0.289068442423697    0.131418515828599  0.0000
  O2     O2        0.368042860675156    0.757987596870640    0.130245736051785  0.0000
  O2     O2        0.868377583342212    0.279297591207296    0.869036103420077  0.0000
  O3     O3        0.642675199529775    0.740822172398226    0.879095060876401  0.0000
  O2     O2        0.839600037627186    0.771069400643262    0.879391418219459  0.0000
  O2     O2        0.668182639365232    0.228428822790469    0.873093565371694  0.0000
  O2     O2        0.163093771539127    0.790203714496825    0.123592212740163  0.0000
  O3     O3        0.350250425361918    0.239275905571289    0.136147251658590  0.0000
  O3     O3        0.631714228650880    0.451518449106502    0.055868367502631  0.0000
  O2     O2        0.878629469906504    0.533858217302434    0.048013271201919  0.0000
  O2     O2        0.375104900140462    0.490480566321551    0.966367677239968  0.0000
  O2     O2        0.137969336473170    0.537006122237261    0.953697933469216  0.0000
  O2     O2        0.767896386799299    0.299337910852105    0.061316308166340  0.0000
  O3     O3        0.747866789074433    0.715256845775632    0.082057686894308  0.0000
  O2     O2        0.247005726718421    0.295739618159887    0.956982420331788  0.0000
  O2     O2        0.266419537344179    0.731971248463696    0.938308196073353  0.0000
