data_c00995.vasp
_audit_creation_method             Generated by GULP
_audit_author_name                 Salvador R. G. Balestra
_symmetry_space_group_name_H-M     'P 1             '
_symmetry_Int_Tables_number        1

loop_
_symmetry_equiv_pos_site_id
_symmetry_equiv_pos_as_xyz
_cell_length_a                       17.0273
_cell_length_b                        7.5682
_cell_length_c                       10.3508
_cell_angle_alpha                   87.8831
_cell_angle_beta                    89.8380
_cell_angle_gamma                   90.5662

loop_
_atom_site_label
_atom_site_type_symbol
_atom_site_fract_x
_atom_site_fract_y
_atom_site_fract_z
_atom_site_charge
  Ge     Ge        0.556730000000016    0.000000000000000    0.122129999999970  0.0000
  Ge     Ge        0.350349325189788    0.702785628172810    0.285318773311219  0.0000
  Ge     Ge        0.854492418107635    0.364731982891002    0.703518493927198  0.0000
  Ge     Ge        0.647069149673613    0.674489105876914    0.024688486871739  0.0000
  Si     Si        0.047028009069506    0.015957050135298    0.365317326295493  0.0000
  Si     Si        0.454066688226549    0.010405764268054    0.375420361794227  0.0000
  Si     Si        0.955650495153201    0.055942863775866    0.626343196097797  0.0000
  Si     Si        0.549824390401413    0.038797304629571    0.631311978726000  0.0000
  Si     Si        0.942963270714520    0.021849279884634    0.113957850481736  0.0000
  Si     Si        0.444468369255162    0.044226242717481    0.881831368220638  0.0000
  Si     Si        0.058097346655740    0.041880310841075    0.878479240224650  0.0000
  Si     Si        0.152531050374286    0.327856284476176    0.275673575045811  0.0000
  Si     Si        0.652230813259570    0.726486802553507    0.718784018955144  0.0000
  Si     Si        0.831472083366124    0.773636131262720    0.723370175045728  0.0000
  Si     Si        0.670368812991550    0.320550242008502    0.701944115525730  0.0000
  Si     Si        0.165480224880397    0.734569943910879    0.282916768900167  0.0000
  Si     Si        0.332923870178988    0.289568067857662    0.272798235495771  0.0000
  Si     Si        0.673855425286178    0.275834479523127    0.003326900897044  0.0000
  Si     Si        0.829534466952362    0.734534509622492    0.027308800051792  0.0000
  Si     Si        0.331728991109510    0.321361357918097    0.970282454170027  0.0000
  Si     Si        0.169261851435088    0.755113300355960    0.980312977479117  0.0000
  Si     Si        0.351373355542695    0.722007506859817    0.978581105347095  0.0000
  Si     Si        0.151160227501460    0.355591587106834    0.974460279084985  0.0000
  Si     Si        0.855265813594004    0.343210671765678    0.009073853319708  0.0000
  O2     O2        0.092690212878910    0.203877220420395    0.358070975953459  0.0000
  O3     O3        0.420070235490213    0.812463223587861    0.372330171218470  0.0000
  O3     O3        0.923193351066510    0.253352723707204    0.615192180907794  0.0000
  O2     O2        0.592492970926679    0.849075137894639    0.635328622040291  0.0000
  O2     O2        0.878371072597549    0.934929897547256    0.654032622855540  0.0000
  O2     O2        0.614991570796366    0.195297197441927    0.617813966907287  0.0000
  O2     O2        0.109697577408344    0.857804736358898    0.364921337935481  0.0000
  O2     O2        0.378806746451805    0.134839317068519    0.348278964132598  0.0000
  O2     O2        0.997698180840069    0.999872521291571    0.496314871646868  0.0000
  O2     O2        0.490893645418654    0.051339399806567    0.512427957626253  0.0000
  O2     O2        0.987531492992938    0.997941485768312    0.247843002815355  0.0000
  O3     O3        0.522361689069251    0.047807214420333    0.271797673168099  0.0000
  O2     O2        0.018468928880287    0.027672578996409    0.740451909754564  0.0000
  O2     O2        0.497570850371679    0.068113045477479    0.756590321542989  0.0000
  O3     O3        0.645095753074899    0.109014100948436    0.087124169635304  0.0000
  O2     O2        0.873915087322516    0.875722139111923    0.113457678995750  0.0000
  O2     O2        0.374916485777026    0.188851175725507    0.877025649053111  0.0000
  O2     O2        0.128987456169622    0.902772050839688    0.889207422910953  0.0000
  O2     O2        0.408118512295461    0.845269087621300    0.888510004930789  0.0000
  O2     O2        0.091643287697924    0.241347637387167    0.890538234433327  0.0000
  O1     O1        0.578700902113897    0.780998685317857    0.113573282337634  0.0000
  O2     O2        0.907623256105208    0.218598843638400    0.103216185434328  0.0000
  O3     O3        0.493493209584881    0.084310567135178    0.007643711674434  0.0000
  O2     O2        0.998767836669555    0.986927057148300    0.993070486485519  0.0000
  O2     O2        0.137356118413343    0.531329846439407    0.306279766823957  0.0000
  O3     O3        0.366223677454695    0.479421578122167    0.307606141769450  0.0000
  O3     O3        0.870113596963836    0.589970110006811    0.688269313494707  0.0000
  O2     O2        0.637012517088799    0.520130920041577    0.691820613511466  0.0000
  O2     O2        0.241352075579264    0.277008185891214    0.313471025272720  0.0000
  O3     O3        0.255087772324666    0.752444758134875    0.326367639342817  0.0000
  O3     O3        0.759590444652958    0.320175287917991    0.653991375787756  0.0000
  O2     O2        0.741231670695015    0.777378479916466    0.675357495144654  0.0000
  O2     O2        0.138793917294109    0.296481654186590    0.124265255944295  0.0000
  O3     O3        0.369707542694839    0.765521978491900    0.125641116785004  0.0000
  O3     O3        0.872080037274057    0.296983210529770    0.862239190673329  0.0000
  O3     O3        0.637960134297144    0.760500665421174    0.867975287130419  0.0000
  O2     O2        0.829297931285590    0.798821349454448    0.877060826572809  0.0000
  O2     O2        0.668596909097941    0.245281014942717    0.849857258726528  0.0000
  O2     O2        0.159322505040111    0.793281965045946    0.131531737270397  0.0000
  O2     O2        0.340517410141189    0.259576465519787    0.119889962934652  0.0000
  O3     O3        0.625850748389527    0.451506971787061    0.034768729781435  0.0000
  O2     O2        0.875363129706062    0.547150143823107    0.037566111228165  0.0000
  O2     O2        0.369124437806775    0.517798755886446    0.951271312620398  0.0000
  O2     O2        0.132287948538449    0.562714602835650    0.951542386332668  0.0000
  O2     O2        0.763685265215080    0.315003955726685    0.039541885610418  0.0000
  O3     O3        0.741592901129969    0.714694491649952    0.078162373547191  0.0000
  O2     O2        0.240372141202462    0.321261345015632    0.931732654050806  0.0000
  O2     O2        0.260978253173287    0.760868861993409    0.945988709368275  0.0000
