data_c00927.vasp
_audit_creation_method             Generated by GULP
_audit_author_name                 Salvador R. G. Balestra
_symmetry_space_group_name_H-M     'P 1             '
_symmetry_Int_Tables_number        1

loop_
_symmetry_equiv_pos_site_id
_symmetry_equiv_pos_as_xyz
_cell_length_a                       17.0872
_cell_length_b                        7.6213
_cell_length_c                       10.3177
_cell_angle_alpha                   92.5261
_cell_angle_beta                    90.8929
_cell_angle_gamma                   89.6768

loop_
_atom_site_label
_atom_site_type_symbol
_atom_site_fract_x
_atom_site_fract_y
_atom_site_fract_z
_atom_site_charge
  Ge     Ge        0.556730000000016    0.000000000000000    0.122129999999970  0.0000
  Ge     Ge        0.159813255942321    0.276421137709031    0.286285920554803  0.0000
  Ge     Ge        0.846686054225367    0.637366776529247    0.702876270900000  0.0000
  Ge     Ge        0.350178296280377    0.309150299347938    0.285450976554259  0.0000
  Si     Si        0.043206987884433    0.994543787062701    0.365519543032381  0.0000
  Si     Si        0.453735138612156    0.003925373664638    0.373575067324156  0.0000
  Si     Si        0.947376184800888    0.943008762979647    0.619139466259814  0.0000
  Si     Si        0.543406445883513    0.962232135678945    0.635167299257919  0.0000
  Si     Si        0.941911805751225    0.983703430439100    0.107510113320214  0.0000
  Si     Si        0.436989292521969    0.959545445713775    0.883194217473783  0.0000
  Si     Si        0.053374955258402    0.960633130436769    0.870235266571270  0.0000
  Si     Si        0.332131308956443    0.718338068249345    0.268212517727965  0.0000
  Si     Si        0.827887369865367    0.230980492185689    0.716495731623991  0.0000
  Si     Si        0.661980888301684    0.677845961428994    0.707111043305662  0.0000
  Si     Si        0.648372865925796    0.273874611631965    0.718536377217110  0.0000
  Si     Si        0.152213772433527    0.688517574955857    0.274294854322217  0.0000
  Si     Si        0.649100874243631    0.313193289785688    0.020488045631178  0.0000
  Si     Si        0.852101188190922    0.660738205597130    0.011365938541962  0.0000
  Si     Si        0.344549147479121    0.280004147662040    0.980138453532293  0.0000
  Si     Si        0.147067419174769    0.649150473175546    0.969125976154911  0.0000
  Si     Si        0.326979867494422    0.673536186965902    0.961848724025639  0.0000
  Si     Si        0.159312914160540    0.250021508252177    0.981792685091183  0.0000
  Si     Si        0.670333818582365    0.709276959660944    0.009046963207765  0.0000
  Si     Si        0.828870911950509    0.267760051011208    0.021839320253262  0.0000
  O3     O3        0.101621022790823    0.156489310642059    0.383905122095341  0.0000
  O2     O2        0.381479415564803    0.877546725804975    0.331200690924115  0.0000
  O2     O2        0.873281686670573    0.071030241493660    0.645864371385138  0.0000
  O2     O2        0.605774518230034    0.802321505517935    0.624292470348871  0.0000
  O3     O3        0.912452373113177    0.749046276546173    0.612716252885181  0.0000
  O2     O2        0.588136712570923    0.148517014275581    0.638157065290859  0.0000
  O2     O2        0.094566937308913    0.817336499163563    0.353354906198849  0.0000
  O3     O3        0.418973356302347    0.199312753113206    0.375602101170623  0.0000
  O2     O2        0.985363679202168    0.986952632609942    0.484630770511698  0.0000
  O2     O2        0.484919789959012    0.951113022516218    0.513529957199698  0.0000
  O2     O2        0.991268046800950    0.018031973362233    0.237104816169678  0.0000
  O3     O3        0.525516598863651    0.981289060012062    0.277201986154807  0.0000
  O2     O2        0.013976752101988    0.969727802440303    0.729859125010448  0.0000
  O2     O2        0.492344281320087    0.943385086401653    0.761638973410406  0.0000
  O3     O3        0.588641160092227    0.212692609520190    0.104690179765490  0.0000
  O2     O2        0.907033379418198    0.786807802371687    0.102640572736529  0.0000
  O2     O2        0.392270755136954    0.147079896015099    0.885202903445213  0.0000
  O2     O2        0.087274732787149    0.764069531036054    0.886073613954114  0.0000
  O2     O2        0.373230040356287    0.803400217884037    0.872973779391510  0.0000
  O2     O2        0.123046160716667    0.103445767501558    0.881675452626833  0.0000
  O3     O3        0.635370718573916    0.859921258076867    0.100024066554600  0.0000
  O2     O2        0.872182588067046    0.127193323902687    0.108704847328749  0.0000
  O3     O3        0.484805244256484    0.934462096452839    0.014426728900940  0.0000
  O2     O2        0.992456646724119    0.014001353126330    0.981196948314321  0.0000
  O3     O3        0.141390673246691    0.495809017155323    0.321827083344642  0.0000
  O3     O3        0.357752370109900    0.532424144529052    0.320680037841971  0.0000
  O3     O3        0.861595632929029    0.414941739727603    0.675711316901483  0.0000
  O2     O2        0.632506687634189    0.476513597662040    0.687632803519187  0.0000
  O1     O1        0.257301721380223    0.240869832575692    0.313546788777361  0.0000
  O2     O2        0.241109465127445    0.753580890426988    0.300609471372012  0.0000
  O2     O2        0.736133531627852    0.220479581215464    0.676638345620864  0.0000
  O3     O3        0.750849554743001    0.688005011747866    0.662989995789061  0.0000
  O3     O3        0.133944326266540    0.219887402022785    0.127069066863773  0.0000
  O2     O2        0.343056175571996    0.715555161386678    0.113572957870501  0.0000
  O2     O2        0.835266573997638    0.212202390280190    0.870678841077270  0.0000
  O2     O2        0.656963382159414    0.745837720359265    0.857337327474836  0.0000
  O3     O3        0.869032163276933    0.695103688318345    0.862809736606624  0.0000
  O2     O2        0.636638632577869    0.245108564635106    0.870758197468503  0.0000
  O2     O2        0.133365983841562    0.695169934574221    0.120642678926667  0.0000
  O3     O3        0.376897611400223    0.264358150493410    0.125302947686744  0.0000
  O2     O2        0.631984449567765    0.520974692370805    0.036798899362442  0.0000
  O2     O2        0.869130466906331    0.458713994266219    0.045224949430831  0.0000
  O2     O2        0.355569969377395    0.474749721494653    0.928120527684051  0.0000
  O2     O2        0.131223263908830    0.442957692792845    0.938622921234577  0.0000
  O2     O2        0.738574691598077    0.273922806233823    0.063688717643708  0.0000
  O2     O2        0.762179524123954    0.703078439036240    0.039953915356177  0.0000
  O2     O2        0.252975907466042    0.234557122885624    0.981181100486787  0.0000
  O2     O2        0.235119114687651    0.694876391620343    0.930079895930721  0.0000
