data_c00943.vasp
_audit_creation_method             Generated by GULP
_audit_author_name                 Salvador R. G. Balestra
_symmetry_space_group_name_H-M     'P 1             '
_symmetry_Int_Tables_number        1

loop_
_symmetry_equiv_pos_site_id
_symmetry_equiv_pos_as_xyz
_cell_length_a                       17.1240
_cell_length_b                        7.6216
_cell_length_c                       10.2624
_cell_angle_alpha                   89.9139
_cell_angle_beta                    90.6883
_cell_angle_gamma                   89.1758

loop_
_atom_site_label
_atom_site_type_symbol
_atom_site_fract_x
_atom_site_fract_y
_atom_site_fract_z
_atom_site_charge
  Ge     Ge        0.556730000000016    0.000000000000000    0.122129999999970  0.0000
  Ge     Ge        0.156129812296237    0.278749953009783    0.279092298132800  0.0000
  Ge     Ge        0.647721944664782    0.309856043394243    0.717224792365812  0.0000
  Ge     Ge        0.675469203204318    0.714880417664100    0.033640400274247  0.0000
  Si     Si        0.040419822112228    0.991317637738102    0.359869591925070  0.0000
  Si     Si        0.442187892774074    0.994067622398586    0.370204088763642  0.0000
  Si     Si        0.945957533419466    0.979583260521118    0.619848362424351  0.0000
  Si     Si        0.542302069336583    0.006363455876687    0.626846561154225  0.0000
  Si     Si        0.945605590176480    0.976056186107792    0.096275210510050  0.0000
  Si     Si        0.445002531628325    0.980231030158216    0.880038717264380  0.0000
  Si     Si        0.059108581241594    0.988242730638740    0.860449166721282  0.0000
  Si     Si        0.330467561498378    0.705458612542051    0.282154688185455  0.0000
  Si     Si        0.829175037918042    0.275416295662192    0.704891094855937  0.0000
  Si     Si        0.664554771179078    0.726089572554695    0.727427050862042  0.0000
  Si     Si        0.841953598129440    0.675219628846145    0.715539496488078  0.0000
  Si     Si        0.148659910405280    0.690014128531050    0.270256700740420  0.0000
  Si     Si        0.338937702359953    0.303795774319379    0.294014492055299  0.0000
  Si     Si        0.649951178551872    0.312555009113746    0.022551539457972  0.0000
  Si     Si        0.854925733195381    0.653834626439285    0.022423964949156  0.0000
  Si     Si        0.345367417109800    0.294491446079872    0.987361579133420  0.0000
  Si     Si        0.153968999391605    0.676283122286604    0.968592997669569  0.0000
  Si     Si        0.334990320919698    0.693991245830293    0.978528106647792  0.0000
  Si     Si        0.165846221035382    0.271784429926480    0.969799623405366  0.0000
  Si     Si        0.830316161161834    0.264757823370609    0.011819522913813  0.0000
  O3     O3        0.096946948515177    0.154803928809461    0.374672988526502  0.0000
  O2     O2        0.377481026102101    0.841230352110123    0.371248216159235  0.0000
  O2     O2        0.885326175592141    0.141757563033139    0.629167075663166  0.0000
  O2     O2        0.612687270702752    0.865553430188055    0.645541692812322  0.0000
  O2     O2        0.901999646035423    0.797240599411458    0.640740271258785  0.0000
  O3     O3        0.579273652345333    0.197828851629393    0.627076301707090  0.0000
  O2     O2        0.094284731687076    0.816955450307527    0.354435997083486  0.0000
  O2     O2        0.399313546531991    0.184336099284912    0.378055430227942  0.0000
  O2     O2        0.980353214990260    0.977253789581076    0.476321044425003  0.0000
  O2     O2        0.502276245749253    0.969308080805403    0.488333658859791  0.0000
  O2     O2        0.991282021526627    0.017783179157210    0.227394032455605  0.0000
  O3     O3        0.488692869286849    0.976653057766265    0.238331815417810  0.0000
  O2     O2        0.017616643262667    0.000055157424308    0.720654058811638  0.0000
  O2     O2        0.474706042484131    0.987929693751529    0.733075394018084  0.0000
  O3     O3        0.594615074790992    0.208125840981282    0.118489029657951  0.0000
  O2     O2        0.920407676560996    0.772117937984047    0.093020372318198  0.0000
  O2     O2        0.407769779480475    0.169710428719657    0.917721918433669  0.0000
  O2     O2        0.100414478499489    0.796791779683712    0.874164349466798  0.0000
  O2     O2        0.380886759574104    0.827674867161720    0.888608424197661  0.0000
  O2     O2        0.122394186325239    0.142397473851437    0.870168951195676  0.0000
  O1     O1        0.632933764592542    0.854357946545189    0.140259908131125  0.0000
  O2     O2        0.869624743601407    0.103576676528593    0.089716888992159  0.0000
  O3     O3        0.516021055663648    0.935252182340118    0.974708066764880  0.0000
  O2     O2        0.996726351959705    0.022871369296343    0.972219959880147  0.0000
  O3     O3        0.126099538469286    0.493227928538876    0.298005966851667  0.0000
  O2     O2        0.357934351967484    0.507974788376277    0.319047682128917  0.0000
  O2     O2        0.860376560253727    0.472429395202004    0.681189612956589  0.0000
  O3     O3        0.629892948419677    0.533167494072812    0.712438948705882  0.0000
  O3     O3        0.251704204773628    0.261195472187875    0.333272513799955  0.0000
  O2     O2        0.238588542306101    0.726576318892228    0.309374779970439  0.0000
  O3     O3        0.740195600551916    0.264723233571714    0.657730760905644  0.0000
  O2     O2        0.753304638264262    0.723012998313852    0.672064336199678  0.0000
  O3     O3        0.151515480975737    0.215322764336920    0.117673518941476  0.0000
  O2     O2        0.346399965936997    0.744537748158394    0.130103707839222  0.0000
  O2     O2        0.830206640054696    0.227152318344766    0.857930187863881  0.0000
  O3     O3        0.669057443566799    0.790797216234127    0.875078704456494  0.0000
  O2     O2        0.851575888665237    0.705081184562808    0.869862424087270  0.0000
  O3     O3        0.637327870767526    0.241035123751842    0.876442314440391  0.0000
  O2     O2        0.136168681134716    0.732563719243438    0.116676746482591  0.0000
  O2     O2        0.350339489300772    0.259205430971780    0.141521171020782  0.0000
  O3     O3        0.629078118047446    0.515181169520381    0.034865593385054  0.0000
  O2     O2        0.875989072465761    0.446663482157629    0.040655271278888  0.0000
  O2     O2        0.366861407333606    0.495781809259411    0.955634327848420  0.0000
  O2     O2        0.134739567571759    0.471678411595316    0.947719928872420  0.0000
  O2     O2        0.741804109811190    0.283784327994479    0.059964808344689  0.0000
  O3     O3        0.771649276809365    0.692235315821808    0.083052480533756  0.0000
  O2     O2        0.257756342404368    0.257211413789882    0.937867587600572  0.0000
  O2     O2        0.244354438127531    0.708052202613815    0.937905579649141  0.0000
