data_c00900.vasp
_audit_creation_method             Generated by GULP
_audit_author_name                 Salvador R. G. Balestra
_symmetry_space_group_name_H-M     'P 1             '
_symmetry_Int_Tables_number        1

loop_
_symmetry_equiv_pos_site_id
_symmetry_equiv_pos_as_xyz
_cell_length_a                       17.0550
_cell_length_b                        7.6138
_cell_length_c                       10.2946
_cell_angle_alpha                   90.3537
_cell_angle_beta                    90.2929
_cell_angle_gamma                   89.4305

loop_
_atom_site_label
_atom_site_type_symbol
_atom_site_fract_x
_atom_site_fract_y
_atom_site_fract_z
_atom_site_charge
  Ge     Ge        0.556730000000016    0.000000000000000    0.122129999999970  0.0000
  Ge     Ge        0.168677302625108    0.256833682899345    0.298509316944264  0.0000
  Ge     Ge        0.338192807499021    0.712317848000118    0.297704967254488  0.0000
  Ge     Ge        0.832660380109044    0.265751468684584    0.045652812954081  0.0000
  Si     Si        0.050355039760160    0.974351865919053    0.387071574118659  0.0000
  Si     Si        0.457569506326746    0.992252198659299    0.383578846392531  0.0000
  Si     Si        0.949337452189707    0.971960584710506    0.641527703734207  0.0000
  Si     Si        0.552487735561314    0.999916728255595    0.643493558134497  0.0000
  Si     Si        0.948996592945610    0.981854502336642    0.131055850135726  0.0000
  Si     Si        0.442233611904775    0.985322380173556    0.880125737332580  0.0000
  Si     Si        0.056531321449699    0.985309430297567    0.889805763976451  0.0000
  Si     Si        0.833857459341577    0.263342303535725    0.736538579169326  0.0000
  Si     Si        0.668934327602150    0.708570902367172    0.739847925981509  0.0000
  Si     Si        0.848662113817458    0.668306186268271    0.735476933377979  0.0000
  Si     Si        0.655187538674157    0.305923755542127    0.743118218089783  0.0000
  Si     Si        0.155004426749237    0.671344856726882    0.301763780635659  0.0000
  Si     Si        0.352128811819803    0.295872397862630    0.295296724503699  0.0000
  Si     Si        0.650880264302274    0.324403282297576    0.048293151772596  0.0000
  Si     Si        0.857948357029124    0.664492980760474    0.037115069303821  0.0000
  Si     Si        0.349163788421477    0.302302586760756    0.991693152498242  0.0000
  Si     Si        0.151896451886288    0.669122570396253    0.997419788729653  0.0000
  Si     Si        0.334641224859397    0.704187104718526    0.989655192055918  0.0000
  Si     Si        0.166371153854885    0.268864885772110    0.989920889347531  0.0000
  Si     Si        0.676703101977618    0.717549093628528    0.042018914807194  0.0000
  O3     O3        0.114652934057407    0.125496091342866    0.397833347980080  0.0000
  O3     O3        0.392130676659088    0.844334068391022    0.399168459741547  0.0000
  O2     O2        0.885877480844059    0.129400411073514    0.651285418602306  0.0000
  O2     O2        0.615784958806260    0.843038548528475    0.658248784892299  0.0000
  O2     O2        0.906740955434952    0.784081091635633    0.649771828331762  0.0000
  O2     O2        0.592825137550443    0.187626488079323    0.666890123854740  0.0000
  O2     O2        0.093423891603428    0.784970275114934    0.386083962482650  0.0000
  O2     O2        0.416571349077214    0.183887773414508    0.374358006346498  0.0000
  O2     O2        0.988530095568795    0.984108311280369    0.501890518184251  0.0000
  O2     O2        0.521260687753325    0.994332899221246    0.497353740725048  0.0000
  O2     O2        0.006010058609709    0.005135966415207    0.251648128576079  0.0000
  O3     O3        0.501382373595996    0.944471456230758    0.251258759078995  0.0000
  O2     O2        0.017484599439998    0.989047482168356    0.748775228631938  0.0000
  O2     O2        0.477611661053269    0.977845426831463    0.736101786517898  0.0000
  O3     O3        0.585973854034630    0.216852534273896    0.123649250614249  0.0000
  O2     O2        0.916092935514820    0.784109058071184    0.121794122467451  0.0000
  O2     O2        0.405994864897302    0.179693393489871    0.906271743975568  0.0000
  O2     O2        0.093952017982624    0.792670880175400    0.914891490564458  0.0000
  O2     O2        0.374960313718098    0.838208019416985    0.891062968393436  0.0000
  O2     O2        0.123598291517380    0.133381681673319    0.893289288504812  0.0000
  O3     O3        0.640689258101655    0.869262989911226    0.127799566298020  0.0000
  O3     O3        0.877011486272162    0.115060034148600    0.144786777776082  0.0000
  O3     O3        0.510208490500233    0.941409820507688    0.980615438786234  0.0000
  O2     O2        0.992838106893647    0.034845013613768    0.998463978669737  0.0000
  O3     O3        0.152881921714762    0.472273664688140    0.345429689015981  0.0000
  O3     O3        0.355346185549393    0.495795335413579    0.338584731858409  0.0000
  O2     O2        0.865109408080041    0.461121587100058    0.714312418495577  0.0000
  O2     O2        0.637038738323473    0.511376379699299    0.716696575989670  0.0000
  O3     O3        0.267416096669238    0.213283869845080    0.318187387833492  0.0000
  O3     O3        0.240063481466271    0.754802233192263    0.321169000276583  0.0000
  O2     O2        0.742420694094476    0.256349211388762    0.693565242023789  0.0000
  O2     O2        0.759395865428613    0.716068974021386    0.694619979325777  0.0000
  O3     O3        0.144691734921481    0.225655093452377    0.137056727984054  0.0000
  O3     O3        0.359838531423393    0.748661887086192    0.136032344487721  0.0000
  O3     O3        0.838875565525922    0.205130476233394    0.884603855842513  0.0000
  O2     O2        0.665852260104220    0.764994638017400    0.890103460203392  0.0000
  O2     O2        0.865311641614266    0.716566848955683    0.885569620471202  0.0000
  O2     O2        0.648264188260965    0.267573485456136    0.896033817019051  0.0000
  O2     O2        0.132012595228576    0.687402827070554    0.149149977954853  0.0000
  O2     O2        0.372910788828884    0.276832153767651    0.141918735121076  0.0000
  O2     O2        0.633743454763944    0.531724651487299    0.066645676166739  0.0000
  O3     O3        0.879926596955821    0.464973808335284    0.061542587043175  0.0000
  O2     O2        0.360908337668652    0.504948797753252    0.952818568407833  0.0000
  O2     O2        0.139688225446670    0.467403396433123    0.953680501074033  0.0000
  O3     O3        0.737475152230666    0.278779991620048    0.098543392558459  0.0000
  O2     O2        0.767917645841314    0.695670402519326    0.078598296703921  0.0000
  O2     O2        0.259486180181245    0.247144488347308    0.970545390519441  0.0000
  O2     O2        0.241202749533915    0.725396302715242    0.974413051141870  0.0000
