data_c00964.vasp
_audit_creation_method             Generated by GULP
_audit_author_name                 Salvador R. G. Balestra
_symmetry_space_group_name_H-M     'P 1             '
_symmetry_Int_Tables_number        1

loop_
_symmetry_equiv_pos_site_id
_symmetry_equiv_pos_as_xyz
_cell_length_a                       16.9842
_cell_length_b                        7.6266
_cell_length_c                       10.3178
_cell_angle_alpha                   90.3249
_cell_angle_beta                    90.5774
_cell_angle_gamma                   90.0266

loop_
_atom_site_label
_atom_site_type_symbol
_atom_site_fract_x
_atom_site_fract_y
_atom_site_fract_z
_atom_site_charge
  Ge     Ge        0.556730000000016    0.000000000000000    0.122129999999970  0.0000
  Ge     Ge        0.156079117322160    0.333415658763341    0.294097781113533  0.0000
  Ge     Ge        0.831042246070741    0.729214725298003    0.025004671275046  0.0000
  Ge     Ge        0.331351556592416    0.292365805518518    0.973755108085851  0.0000
  Si     Si        0.052263715930785    0.025362499114075    0.374815456678437  0.0000
  Si     Si        0.456187333278012    0.007128382350729    0.377915874876686  0.0000
  Si     Si        0.952164686124288    0.006598217324660    0.628957908601163  0.0000
  Si     Si        0.553298655419655    0.990522657172685    0.637546200246814  0.0000
  Si     Si        0.944449202481536    0.013069512491580    0.122380226037947  0.0000
  Si     Si        0.443143199615588    0.009735045530907    0.882071116438258  0.0000
  Si     Si        0.053615081122526    0.006834037730185    0.885022984689299  0.0000
  Si     Si        0.350939067129075    0.703707160278892    0.276993719986566  0.0000
  Si     Si        0.851413177369789    0.315708321594813    0.717980639694234  0.0000
  Si     Si        0.656352653796600    0.680601780771995    0.712868031022676  0.0000
  Si     Si        0.835856853077298    0.719975093101503    0.716405800186709  0.0000
  Si     Si        0.669798017334404    0.279782797477449    0.715268090744954  0.0000
  Si     Si        0.169127461661635    0.740827119872431    0.283499708603479  0.0000
  Si     Si        0.338986704587578    0.297337696488372    0.283726455456928  0.0000
  Si     Si        0.672728683529569    0.281714340043604    0.016498754328054  0.0000
  Si     Si        0.166559862093985    0.723515445844385    0.981402320559637  0.0000
  Si     Si        0.349987467209157    0.694448803371249    0.977407033346077  0.0000
  Si     Si        0.147994793487956    0.325533469159991    0.983089854318438  0.0000
  Si     Si        0.648272596664431    0.675851935544286    0.017533362162935  0.0000
  Si     Si        0.855840795020758    0.329294244490709    0.017911765330451  0.0000
  O3     O3        0.090106294674793    0.216203808899545    0.384593196756188  0.0000
  O2     O2        0.409922644890578    0.823367478575210    0.360576937262464  0.0000
  O2     O2        0.909012207116100    0.195820491324556    0.632342839823114  0.0000
  O2     O2        0.595761865676664    0.800965417515129    0.631965517207602  0.0000
  O2     O2        0.887868279995218    0.851503177419388    0.631656720105550  0.0000
  O2     O2        0.619443610378292    0.142567118132529    0.629912750115574  0.0000
  O2     O2        0.125031981138120    0.889111657999513    0.365845124707247  0.0000
  O2     O2        0.397653767311608    0.171851426905759    0.363229160082570  0.0000
  O2     O2        0.999013286857738    0.985345543557799    0.497016841605551  0.0000
  O2     O2        0.491835651773077    0.010155452321950    0.521620138509713  0.0000
  O2     O2        0.998484079907255    0.004223308396431    0.247849306907076  0.0000
  O3     O3        0.527397356663397    0.019652193738381    0.279340247503585  0.0000
  O2     O2        0.014796473432692    0.989120111032208    0.744745215766801  0.0000
  O2     O2        0.506092611232247    0.011476763229770    0.769755388863255  0.0000
  O3     O3        0.637894559009724    0.134553035007912    0.105904667820223  0.0000
  O3     O3        0.873075974486735    0.878520806752268    0.129618570012397  0.0000
  O3     O3        0.374755290818966    0.151157835900042    0.865929819206727  0.0000
  O2     O2        0.124973960878163    0.867081874455405    0.891145856468390  0.0000
  O2     O2        0.404020696660914    0.816708062872088    0.889257577037414  0.0000
  O2     O2        0.084553925946953    0.205316160086568    0.906247127484525  0.0000
  O3     O3        0.581800119177837    0.785004216339658    0.088409960548019  0.0000
  O2     O2        0.911287397819068    0.210300438535976    0.108031236876990  0.0000
  O3     O3        0.484455028701686    0.067647701970102    0.016790605175382  0.0000
  O2     O2        0.991942332142472    0.952892137482147    0.994752628721884  0.0000
  O3     O3        0.134680296944977    0.552153874832442    0.316025484649737  0.0000
  O2     O2        0.370042402956444    0.498553729017925    0.295067108234378  0.0000
  O2     O2        0.868234227234258    0.521700775682973    0.696956961795629  0.0000
  O2     O2        0.637697412582058    0.475684151774943    0.686808594338236  0.0000
  O3     O3        0.251996334670699    0.290039165133039    0.340985414693228  0.0000
  O2     O2        0.261850721782964    0.743597438033314    0.320140485351888  0.0000
  O2     O2        0.761599008161439    0.269680556008583    0.677915391553649  0.0000
  O2     O2        0.744933820930010    0.725107651277185    0.668354412845590  0.0000
  O3     O3        0.145083625231244    0.275369102931103    0.133329239608003  0.0000
  O2     O2        0.363361328116973    0.754608564621641    0.126894059348238  0.0000
  O2     O2        0.867838527065537    0.270645818548098    0.868315746165391  0.0000
  O2     O2        0.648135443275837    0.723198817777461    0.864796597636401  0.0000
  O3     O3        0.839478612880229    0.783701407704884    0.863886460210713  0.0000
  O2     O2        0.661042741971849    0.228306240559946    0.865618742578693  0.0000
  O2     O2        0.159612190525751    0.782216133698646    0.130952130771527  0.0000
  O3     O3        0.336885896542422    0.235018965092690    0.135069373239172  0.0000
  O2     O2        0.630628902625538    0.469617940195493    0.038623337414838  0.0000
  O3     O3        0.877369853146114    0.528573102262860    0.043094844996874  0.0000
  O3     O3        0.374325232998458    0.496160294307339    0.955872081489629  0.0000
  O2     O2        0.126778471851286    0.531913370127908    0.963728276810919  0.0000
  O2     O2        0.764456026297091    0.302281332546651    0.051886756165448  0.0000
  O3     O3        0.734232240211385    0.723225977939686    0.071926102488374  0.0000
  O3     O3        0.233857723801736    0.293462490966892    0.927508055585135  0.0000
  O2     O2        0.257702256149200    0.714842826795411    0.941118909575435  0.0000
