data_c00992.vasp
_audit_creation_method             Generated by GULP
_audit_author_name                 Salvador R. G. Balestra
_symmetry_space_group_name_H-M     'P 1             '
_symmetry_Int_Tables_number        1

loop_
_symmetry_equiv_pos_site_id
_symmetry_equiv_pos_as_xyz
_cell_length_a                       17.1929
_cell_length_b                        7.6335
_cell_length_c                       10.1866
_cell_angle_alpha                   89.5567
_cell_angle_beta                    90.3495
_cell_angle_gamma                   90.1120

loop_
_atom_site_label
_atom_site_type_symbol
_atom_site_fract_x
_atom_site_fract_y
_atom_site_fract_z
_atom_site_charge
  Ge     Ge        0.556730000000016    0.000000000000000    0.122129999999970  0.0000
  Ge     Ge        0.334392713085707    0.707603421743650    0.296843343355185  0.0000
  Ge     Ge        0.834334423624755    0.291472323586161    0.721150571858638  0.0000
  Ge     Ge        0.150900992838312    0.669156230993111    0.976883052409329  0.0000
  Si     Si        0.051083313347698    0.980796797126870    0.385340196505397  0.0000
  Si     Si        0.450137215384755    0.995732297342035    0.380607245875685  0.0000
  Si     Si        0.950847413015179    0.005066712526281    0.640805699433747  0.0000
  Si     Si        0.548875836298937    0.016018378230080    0.636759403795728  0.0000
  Si     Si        0.945056599872549    0.991317214466152    0.137596426316657  0.0000
  Si     Si        0.443157198984889    0.996064010096593    0.878314720724578  0.0000
  Si     Si        0.054095721448938    0.987720105061567    0.894547449466379  0.0000
  Si     Si        0.165395678155036    0.272168846484349    0.289943003538744  0.0000
  Si     Si        0.664321990396083    0.726119870266260    0.739457293321745  0.0000
  Si     Si        0.844034647988655    0.701556036942670    0.728603344524664  0.0000
  Si     Si        0.652077054560613    0.320256982968690    0.732961680219647  0.0000
  Si     Si        0.152494426538387    0.675921631306736    0.291560713501692  0.0000
  Si     Si        0.345150618840265    0.298717482890749    0.296536986587730  0.0000
  Si     Si        0.656621900258059    0.317428908578669    0.039890290776667  0.0000
  Si     Si        0.850986214475255    0.679615931038617    0.034838884564396  0.0000
  Si     Si        0.347586411526576    0.304996220929590    0.991039871175394  0.0000
  Si     Si        0.333026716178633    0.706334679138053    0.982695918873522  0.0000
  Si     Si        0.168304327656439    0.266658054982990    0.982745123567178  0.0000
  Si     Si        0.672281240274858    0.714858363661043    0.044812072438130  0.0000
  Si     Si        0.835918504938391    0.279783871897483    0.033478671139704  0.0000
  O2     O2        0.115054499083312    0.134788478751755    0.373171805979145  0.0000
  O3     O3        0.389831332286511    0.837606640003925    0.397299818874631  0.0000
  O3     O3        0.891780518536686    0.164567826133950    0.622816276042263  0.0000
  O2     O2        0.611398622011935    0.861320943631361    0.658277706504001  0.0000
  O2     O2        0.899323365548200    0.828688604695644    0.645648079156427  0.0000
  O2     O2        0.589059171811795    0.205548187143535    0.654025928250448  0.0000
  O2     O2        0.090974732115320    0.791365169585105    0.372103125571166  0.0000
  O2     O2        0.401044298601558    0.175808084676712    0.383214662728617  0.0000
  O2     O2        0.013798332839371    0.991963968756459    0.527645813631934  0.0000
  O2     O2        0.518027170870712    0.002033702536082    0.488472973197237  0.0000
  O2     O2        0.981985242172114    0.006113557356083    0.280837822255300  0.0000
  O3     O3        0.489681368780687    0.967460460342653    0.240704104162274  0.0000
  O2     O2        0.998408860393096    0.036661208512725    0.774823940099317  0.0000
  O2     O2        0.474221623260936    0.996847373863253    0.729812098447688  0.0000
  O3     O3        0.598830964692019    0.205407969807657    0.127568672201192  0.0000
  O2     O2        0.909161387137899    0.796817281836428    0.120984949333036  0.0000
  O2     O2        0.405480723039465    0.185717299386451    0.908114271072796  0.0000
  O3     O3        0.084828440603996    0.790614520226943    0.887046345732268  0.0000
  O2     O2        0.380804648715949    0.840014125676941    0.891647246016859  0.0000
  O2     O2        0.129712299873278    0.114570258342033    0.896296138464980  0.0000
  O3     O3        0.630267013834156    0.846491685788941    0.138982380921417  0.0000
  O2     O2        0.879639766950040    0.140832214426885    0.126384545693634  0.0000
  O3     O3        0.515002487554840    0.959223379373103    0.972349836986386  0.0000
  O2     O2        0.010235061643625    0.025780534752465    0.029698090495582  0.0000
  O2     O2        0.134050729883540    0.468869924209017    0.311749640356678  0.0000
  O3     O3        0.367659780074950    0.496866702256726    0.320634304952812  0.0000
  O3     O3        0.863380893535899    0.504460517214555    0.694360339753538  0.0000
  O2     O2        0.635706550747239    0.527652836451526    0.712335218274915  0.0000
  O2     O2        0.255375808301459    0.261525549881352    0.335467078918432  0.0000
  O3     O3        0.238321967379743    0.717202447602642    0.343224380905562  0.0000
  O3     O3        0.737024248973841    0.274599636878660    0.681201718867489  0.0000
  O2     O2        0.753939054510714    0.745502388862207    0.694586399024394  0.0000
  O2     O2        0.160031142164650    0.223081089126817    0.137187618622234  0.0000
  O3     O3        0.338451327331355    0.766773592101476    0.133043914634073  0.0000
  O3     O3        0.844832046402386    0.227141937306850    0.883050268291141  0.0000
  O2     O2        0.659685420707347    0.772304606592784    0.892920976405456  0.0000
  O2     O2        0.860547358565140    0.734140651041386    0.882928489974041  0.0000
  O2     O2        0.644707460334254    0.270107805765551    0.886623904379569  0.0000
  O3     O3        0.143954477706457    0.726141204438193    0.139445247952553  0.0000
  O2     O2        0.357683311965327    0.251217035843083    0.143357064377212  0.0000
  O2     O2        0.637676699490793    0.520195521943565    0.065057231524636  0.0000
  O2     O2        0.871792653010549    0.474835522489889    0.053981731213847  0.0000
  O2     O2        0.368799155975133    0.509515319348854    0.972010530959351  0.0000
  O3     O3        0.128824464687892    0.451608786233344    0.951917895218182  0.0000
  O2     O2        0.746097919724549    0.277058258274805    0.076510730401282  0.0000
  O2     O2        0.763486513807017    0.714784995818361    0.080319766534573  0.0000
  O2     O2        0.259103637063809    0.273749208781768    0.944831776455113  0.0000
  O3     O3        0.245575853917867    0.705876566853021    0.930308100731163  0.0000
