data_c00934.vasp
_audit_creation_method             Generated by GULP
_audit_author_name                 Salvador R. G. Balestra
_symmetry_space_group_name_H-M     'P 1             '
_symmetry_Int_Tables_number        1

loop_
_symmetry_equiv_pos_site_id
_symmetry_equiv_pos_as_xyz
_cell_length_a                       17.0765
_cell_length_b                        7.5989
_cell_length_c                       10.3228
_cell_angle_alpha                   90.4219
_cell_angle_beta                    90.7782
_cell_angle_gamma                   90.1869

loop_
_atom_site_label
_atom_site_type_symbol
_atom_site_fract_x
_atom_site_fract_y
_atom_site_fract_z
_atom_site_charge
  Ge     Ge        0.556730000000016    0.000000000000000    0.122129999999970  0.0000
  Ge     Ge        0.150912752059065    0.350153921069804    0.271274604566309  0.0000
  Ge     Ge        0.828486757350497    0.736798518299565    0.702071953258447  0.0000
  Ge     Ge        0.648320539097295    0.672624613968089    0.017952420938574  0.0000
  Si     Si        0.047351976853012    0.043152519520822    0.357941799206486  0.0000
  Si     Si        0.451337979576465    0.029761027470519    0.366778302911642  0.0000
  Si     Si        0.949095197458705    0.021284171460338    0.612822117390384  0.0000
  Si     Si        0.544053205027437    0.007155185009817    0.629610173320911  0.0000
  Si     Si        0.943464847355648    0.022769438174956    0.105139283004374  0.0000
  Si     Si        0.441519884323633    0.023128597863251    0.880014650709527  0.0000
  Si     Si        0.054263428095547    0.023101871155511    0.867821890349801  0.0000
  Si     Si        0.346368301589674    0.723408262019492    0.261945528810204  0.0000
  Si     Si        0.845532201650508    0.326076843395185    0.696947425343367  0.0000
  Si     Si        0.646406324694430    0.696265338235217    0.708371980183476  0.0000
  Si     Si        0.664564709456402    0.289686634791686    0.703308258573621  0.0000
  Si     Si        0.166354176528457    0.761650049227851    0.260341391399162  0.0000
  Si     Si        0.334492205378663    0.317840355184477    0.270368365997178  0.0000
  Si     Si        0.671381726570010    0.272424306831040    0.004731908029019  0.0000
  Si     Si        0.830495718884966    0.732892291420768    0.010874197404962  0.0000
  Si     Si        0.329411665712201    0.308417808885110    0.966015851714749  0.0000
  Si     Si        0.166245972657571    0.739604852599696    0.956778090411378  0.0000
  Si     Si        0.346442889551442    0.705974460472559    0.960044414128036  0.0000
  Si     Si        0.148305868967005    0.340066799630819    0.963007937441055  0.0000
  Si     Si        0.851355469777008    0.335484908216118    0.997195341020192  0.0000
  O3     O3        0.083766819201115    0.236634289264175    0.360766577683040  0.0000
  O2     O2        0.407953442829971    0.844353022007204    0.338822376661318  0.0000
  O2     O2        0.902829795903066    0.206626226066920    0.611284358645311  0.0000
  O2     O2        0.581797948543392    0.812407917976144    0.631065488533171  0.0000
  O3     O3        0.884334681274498    0.870153522556783    0.607648970671131  0.0000
  O2     O2        0.612878587560214    0.153434249731301    0.617906707428041  0.0000
  O2     O2        0.120213883842849    0.911027558704948    0.337434312597161  0.0000
  O2     O2        0.391218741974121    0.191198531919685    0.351308025974403  0.0000
  O2     O2        0.006208866184215    0.005098661018917    0.492578562851513  0.0000
  O2     O2        0.483481216748988    0.025644869311841    0.512184152022329  0.0000
  O2     O2        0.983002201289404    0.016177650673499    0.245397590096993  0.0000
  O3     O3        0.524334446842052    0.052031214170420    0.273710533996637  0.0000
  O2     O2        0.001492575556338    0.999730316249617    0.741489744736376  0.0000
  O2     O2        0.495688986896817    0.046464194256125    0.757938507689028  0.0000
  O3     O3        0.642490707676584    0.114375856185683    0.090157810647616  0.0000
  O2     O2        0.876969325730415    0.872823808978915    0.100749966808442  0.0000
  O2     O2        0.371276201540160    0.165111020287212    0.876864791797778  0.0000
  O2     O2        0.122688954066370    0.877027373687556    0.864086241661913  0.0000
  O2     O2        0.405722875018637    0.824753367755680    0.878306083494182  0.0000
  O2     O2        0.091566152685945    0.218887697195007    0.873398460376837  0.0000
  O1     O1        0.581978111173162    0.783729591379263    0.108814556304863  0.0000
  O2     O2        0.908093764251011    0.217691340703495    0.085610334033182  0.0000
  O3     O3        0.488764187994205    0.067105661936869    0.009705006774839  0.0000
  O2     O2        0.005094118833823    0.979833853830085    0.994430806236263  0.0000
  O3     O3        0.134363929913154    0.571164732811932    0.295513153206154  0.0000
  O2     O2        0.362305428458706    0.519612354200347    0.293584365679508  0.0000
  O3     O3        0.863909317495955    0.527519226665039    0.674977078058246  0.0000
  O2     O2        0.631260208126652    0.486943415823275    0.686817994091668  0.0000
  O3     O3        0.245979466720527    0.298759252885345    0.315367188628194  0.0000
  O2     O2        0.258170990000856    0.774335357077602    0.300287093543077  0.0000
  O2     O2        0.754834783268695    0.283310261809671    0.658554708022606  0.0000
  O3     O3        0.731296989221357    0.743562564952069    0.655052811664513  0.0000
  O3     O3        0.133953578287280    0.293204280924520    0.111140131689353  0.0000
  O2     O2        0.359926084294570    0.758501946449414    0.110224539005915  0.0000
  O2     O2        0.861081881633149    0.277536283437639    0.847753654546468  0.0000
  O3     O3        0.639417397404257    0.741641147673300    0.859172910574486  0.0000
  O3     O3        0.831227273343067    0.797255635688251    0.863131846156993  0.0000
  O2     O2        0.660725496400381    0.228751475196222    0.851985241399695  0.0000
  O2     O2        0.158104588588477    0.794705075189389    0.106686027267287  0.0000
  O2     O2        0.338818093532461    0.267034348909583    0.118362866501805  0.0000
  O3     O3        0.626333331601447    0.452730392225104    0.034930345074254  0.0000
  O2     O2        0.872982591191172    0.540968493421557    0.016053485616134  0.0000
  O2     O2        0.366009947602236    0.500978702414036    0.936989154209141  0.0000
  O2     O2        0.129591964465444    0.544896000369773    0.935712263526271  0.0000
  O2     O2        0.762343258909337    0.307535405536248    0.038862395201707  0.0000
  O3     O3        0.743988720646338    0.716991246716226    0.064866014211445  0.0000
  O2     O2        0.238231642927371    0.303485907861005    0.927672779657278  0.0000
  O2     O2        0.257102049462554    0.742118395861464    0.917930149540921  0.0000
