data_c00983.vasp
_audit_creation_method             Generated by GULP
_audit_author_name                 Salvador R. G. Balestra
_symmetry_space_group_name_H-M     'P 1             '
_symmetry_Int_Tables_number        1

loop_
_symmetry_equiv_pos_site_id
_symmetry_equiv_pos_as_xyz
_cell_length_a                       16.9700
_cell_length_b                        7.6231
_cell_length_c                       10.3230
_cell_angle_alpha                   90.2737
_cell_angle_beta                    90.9712
_cell_angle_gamma                   89.3773

loop_
_atom_site_label
_atom_site_type_symbol
_atom_site_fract_x
_atom_site_fract_y
_atom_site_fract_z
_atom_site_charge
  Ge     Ge        0.556730000000016    0.000000000000000    0.122129999999970  0.0000
  Ge     Ge        0.161215698778042    0.266194826207772    0.278232293107924  0.0000
  Ge     Ge        0.159610037676709    0.269229617258537    0.964169347184523  0.0000
  Ge     Ge        0.826700349338706    0.266584346426047    0.013431794720295  0.0000
  Si     Si        0.043738724705833    0.982670702325832    0.363737141839714  0.0000
  Si     Si        0.448547265244373    0.996522318502082    0.365555227167131  0.0000
  Si     Si        0.936420461955570    0.971606519647817    0.610117905852470  0.0000
  Si     Si        0.537951683803178    0.001041568212200    0.634452211961809  0.0000
  Si     Si        0.942604045128749    0.983702851926211    0.103693657440840  0.0000
  Si     Si        0.436723096037454    0.990001480307567    0.887397324995306  0.0000
  Si     Si        0.045855617790796    0.988969298640566    0.860595637402394  0.0000
  Si     Si        0.330948818870736    0.708479404244815    0.272795958773215  0.0000
  Si     Si        0.822735886306966    0.263988109118015    0.704870878023166  0.0000
  Si     Si        0.656502764013073    0.710682226117667    0.713281802545628  0.0000
  Si     Si        0.837931404111540    0.667785672328080    0.703058960566001  0.0000
  Si     Si        0.642824027879415    0.308690558257255    0.716475135835213  0.0000
  Si     Si        0.148713815201392    0.681333095523293    0.275636956385391  0.0000
  Si     Si        0.341887492323868    0.308278198459533    0.274137260282626  0.0000
  Si     Si        0.643623019791722    0.325129497252892    0.020510821208331  0.0000
  Si     Si        0.853201568122567    0.664098084765226    0.002721093533337  0.0000
  Si     Si        0.340043902223854    0.314412829216792    0.966242735047262  0.0000
  Si     Si        0.141287769475407    0.677641597146346    0.975963363267704  0.0000
  Si     Si        0.324190712281299    0.708419566919074    0.970262942506497  0.0000
  Si     Si        0.670071780511526    0.717777653511469    0.013444315108394  0.0000
  O3     O3        0.103794270434518    0.141515246066119    0.377251825256363  0.0000
  O2     O2        0.382059015431995    0.847772856891020    0.353335722686861  0.0000
  O2     O2        0.872456591688485    0.129561764606448    0.616925334066229  0.0000
  O2     O2        0.603783967417173    0.846089197518738    0.629257152452902  0.0000
  O2     O2        0.892569373140010    0.784551234945242    0.612768270172993  0.0000
  O2     O2        0.580265724179775    0.189438136024840    0.639465486852993  0.0000
  O2     O2        0.094057853085793    0.801537181531289    0.366318418372285  0.0000
  O2     O2        0.411829198817628    0.187153161138756    0.330992450442541  0.0000
  O2     O2        0.980395141731938    0.983979526395234    0.475668304123543  0.0000
  O2     O2        0.481078884375350    0.995179724205007    0.510935699201981  0.0000
  O2     O2        0.997663273622217    0.002692392562156    0.227990048895730  0.0000
  O3     O3        0.521265869162091    0.961769614428678    0.273155348980886  0.0000
  O2     O2        0.000367277194231    0.985349645182133    0.724764282723793  0.0000
  O2     O2        0.483113551214073    0.972756010450874    0.756046701251443  0.0000
  O3     O3        0.581221472966971    0.217236735898142    0.100210502761002  0.0000
  O2     O2        0.912125249718842    0.784754041489298    0.086429382929540  0.0000
  O2     O2        0.407357630163078    0.191186295050880    0.905444731980406  0.0000
  O2     O2        0.083740913462822    0.797509148281830    0.888481266523294  0.0000
  O2     O2        0.362956625159033    0.856790253467027    0.882950879723985  0.0000
  O3     O3        0.112610369450102    0.133276272447419    0.855520347702170  0.0000
  O3     O3        0.639834628724618    0.869234629838399    0.105188407406497  0.0000
  O3     O3        0.869076011823615    0.113898902145569    0.114472411671598  0.0000
  O3     O3        0.489748132592803    0.930098768590617    0.007706431647557  0.0000
  O2     O2        0.988556729954021    0.048668403957983    0.976744111555893  0.0000
  O3     O3        0.128876950730077    0.480906194898870    0.293644884825620  0.0000
  O2     O2        0.362959000723013    0.511947069646740    0.302395493971836  0.0000
  O2     O2        0.854199185896158    0.461073802073767    0.681042120228051  0.0000
  O2     O2        0.623964808439363    0.513946813978821    0.691210818071847  0.0000
  O3     O3        0.258670097398796    0.258978962721877    0.332389639569722  0.0000
  O2     O2        0.239885868574312    0.721223782852312    0.313623498138545  0.0000
  O2     O2        0.729966853328510    0.259583146502348    0.666329351010623  0.0000
  O2     O2        0.747096491537164    0.715693930224843    0.669156511208716  0.0000
  O1     O1        0.154421630666876    0.197022653057515    0.120551105937174  0.0000
  O2     O2        0.337470413306632    0.755323248758351    0.121491371530405  0.0000
  O3     O3        0.831414278697058    0.206085770792325    0.852617509333490  0.0000
  O2     O2        0.653466958795661    0.769232241972051    0.863364558503780  0.0000
  O2     O2        0.859829155583842    0.715959342431276    0.851537291958222  0.0000
  O2     O2        0.637324399813714    0.268529413675446    0.868967222561844  0.0000
  O2     O2        0.132998709531557    0.735968408909510    0.125862250014950  0.0000
  O2     O2        0.333253890555457    0.279506688193569    0.119763184270642  0.0000
  O2     O2        0.626984537093231    0.532794812105968    0.039053082734539  0.0000
  O3     O3        0.875363254411480    0.464620445081102    0.028104405864665  0.0000
  O2     O2        0.362623003041368    0.517255199764655    0.940480876540441  0.0000
  O3     O3        0.118360990762623    0.477874376006259    0.957740546801104  0.0000
  O3     O3        0.731722180727270    0.280565923223641    0.067188776574908  0.0000
  O2     O2        0.762696247107761    0.692874760208719    0.042498614276371  0.0000
  O3     O3        0.254984636629046    0.274560245321699    0.907793036265441  0.0000
  O2     O2        0.231761633784673    0.704460645490347    0.934625119048351  0.0000
