data_c00935.vasp
_audit_creation_method             Generated by GULP
_audit_author_name                 Salvador R. G. Balestra
_symmetry_space_group_name_H-M     'P 1             '
_symmetry_Int_Tables_number        1

loop_
_symmetry_equiv_pos_site_id
_symmetry_equiv_pos_as_xyz
_cell_length_a                       17.0308
_cell_length_b                        7.6204
_cell_length_c                       10.3223
_cell_angle_alpha                   91.3796
_cell_angle_beta                    90.8228
_cell_angle_gamma                   88.9762

loop_
_atom_site_label
_atom_site_type_symbol
_atom_site_fract_x
_atom_site_fract_y
_atom_site_fract_z
_atom_site_charge
  Ge     Ge        0.556730000000016    0.000000000000000    0.122129999999970  0.0000
  Ge     Ge        0.162261590087647    0.270576071644288    0.285290300083039  0.0000
  Ge     Ge        0.846163288515803    0.643269168599506    0.708666278319870  0.0000
  Ge     Ge        0.825013127433662    0.255876626932480    0.028415649845305  0.0000
  Si     Si        0.047237467841492    0.985594772841153    0.371968837567995  0.0000
  Si     Si        0.453414534714232    0.985577036018026    0.370457472998969  0.0000
  Si     Si        0.944955647610758    0.949810588391069    0.621620459828450  0.0000
  Si     Si        0.542609602776988    0.980010223276285    0.638148019666969  0.0000
  Si     Si        0.939850582064968    0.972427963038711    0.118918119105241  0.0000
  Si     Si        0.436710069119875    0.966696275168713    0.885990022060593  0.0000
  Si     Si        0.046397420866332    0.978821640329706    0.878282831749665  0.0000
  Si     Si        0.336536145582353    0.695982334525709    0.272575696254920  0.0000
  Si     Si        0.825558304750425    0.232974572521805    0.720992887639363  0.0000
  Si     Si        0.662154920130277    0.690304040659528    0.708397488906656  0.0000
  Si     Si        0.646428597387623    0.290505972622938    0.721968201024797  0.0000
  Si     Si        0.155479892940209    0.682915385445679    0.284711641926131  0.0000
  Si     Si        0.346250018224370    0.291220349418847    0.276416548515599  0.0000
  Si     Si        0.643210460277931    0.323099148549311    0.025844333325684  0.0000
  Si     Si        0.854078148882499    0.653026489583844    0.013433932992333  0.0000
  Si     Si        0.338423771055416    0.286008012785730    0.972084136812251  0.0000
  Si     Si        0.146023813948363    0.668085805316733    0.982405799245289  0.0000
  Si     Si        0.326870833543241    0.684154448243279    0.969681413076449  0.0000
  Si     Si        0.157299334449357    0.264637580034881    0.977151798094060  0.0000
  Si     Si        0.671525384092644    0.712330160188631    0.011027991921497  0.0000
  O3     O3        0.103750528143236    0.150260951158921    0.381714419504923  0.0000
  O2     O2        0.391033068760190    0.830811106932939    0.350476808426087  0.0000
  O2     O2        0.870835840208614    0.083331083353166    0.637389509117645  0.0000
  O2     O2        0.607430413524796    0.823237793080734    0.627050464941787  0.0000
  O3     O3        0.911183971173005    0.755566720871713    0.616346384948436  0.0000
  O2     O2        0.585041971387922    0.167327626656151    0.645714191281812  0.0000
  O2     O2        0.102367720567869    0.811412442762075    0.373231216399789  0.0000
  O2     O2        0.411873814220115    0.174809950226458    0.348378443674550  0.0000
  O2     O2        0.987609723039595    0.987952390277831    0.489021499845570  0.0000
  O2     O2        0.484825825288437    0.976630071665551    0.516091528571934  0.0000
  O2     O2        0.997887997476866    0.992581760760944    0.239342274227935  0.0000
  O3     O3        0.526407242658912    0.963844635763817    0.276436821652783  0.0000
  O2     O2        0.007707107230565    0.978401483384765    0.737260464250985  0.0000
  O2     O2        0.490826802276485    0.949413503678999    0.762743683974346  0.0000
  O3     O3        0.579219968720529    0.218139334197103    0.102155198168936  0.0000
  O2     O2        0.908000316308466    0.774143434285683    0.107660417070155  0.0000
  O2     O2        0.395341328314542    0.159408752388584    0.888695788506046  0.0000
  O2     O2        0.086108098878709    0.787529910503538    0.900684268783542  0.0000
  O2     O2        0.370596274834551    0.816749526079834    0.878337282898308  0.0000
  O2     O2        0.110415100052897    0.132104855030795    0.882732207840462  0.0000
  O3     O3        0.640385926917358    0.872694123585454    0.096414942461616  0.0000
  O3     O3        0.868264584563329    0.108912797364556    0.132175592489259  0.0000
  O3     O3        0.486028632895831    0.930363999136568    0.014593799482465  0.0000
  O2     O2        0.982722643446916    0.026140386944317    0.987169829849156  0.0000
  O3     O3        0.135361398024022    0.486339265854100    0.314463896024737  0.0000
  O2     O2        0.363723796664531    0.496929273017995    0.302377506505259  0.0000
  O3     O3        0.863532170351289    0.420122213988556    0.697973036060516  0.0000
  O2     O2        0.627832699691480    0.493853086718432    0.691662554832213  0.0000
  O3     O3        0.260644123527642    0.245271163404817    0.324462539688349  0.0000
  O2     O2        0.246701871945079    0.723254968956292    0.316655542192993  0.0000
  O2     O2        0.734176106526241    0.241825409010965    0.674848401345007  0.0000
  O3     O3        0.750722204106700    0.689968279001065    0.659883772678443  0.0000
  O3     O3        0.148621174468874    0.209919450983114    0.124691337215644  0.0000
  O2     O2        0.342032998595126    0.733841703239127    0.120389748583795  0.0000
  O3     O3        0.827659146030379    0.180819747415852    0.869890671873382  0.0000
  O2     O2        0.662729619248280    0.754220328848465    0.858857601950228  0.0000
  O3     O3        0.865685311166035    0.710147341822831    0.866758411723914  0.0000
  O2     O2        0.639915319725278    0.258778996484947    0.875000980425019  0.0000
  O2     O2        0.138015545351224    0.721055611038979    0.133403128032282  0.0000
  O2     O2        0.352588033568079    0.246947881388313    0.123182762804815  0.0000
  O2     O2        0.625420256168962    0.532298902906667    0.038582304725379  0.0000
  O3     O3        0.875268723513610    0.451944134128987    0.035887496720794  0.0000
  O2     O2        0.358619409314572    0.486237510594570    0.941002746432337  0.0000
  O2     O2        0.124607765776145    0.463975794766778    0.960175261057076  0.0000
  O3     O3        0.729793849882562    0.280115768950896    0.080041252213150  0.0000
  O2     O2        0.762281513948373    0.678756219257962    0.046926422428100  0.0000
  O2     O2        0.248014352063903    0.251262210289263    0.936000293718800  0.0000
  O2     O2        0.234449544687960    0.699079204611301    0.936767618711988  0.0000
