data_c00914.vasp
_audit_creation_method             Generated by GULP
_audit_author_name                 Salvador R. G. Balestra
_symmetry_space_group_name_H-M     'P 1             '
_symmetry_Int_Tables_number        1

loop_
_symmetry_equiv_pos_site_id
_symmetry_equiv_pos_as_xyz
_cell_length_a                       17.0871
_cell_length_b                        7.6511
_cell_length_c                       10.2911
_cell_angle_alpha                   92.2533
_cell_angle_beta                    90.1286
_cell_angle_gamma                   89.1865

loop_
_atom_site_label
_atom_site_type_symbol
_atom_site_fract_x
_atom_site_fract_y
_atom_site_fract_z
_atom_site_charge
  Ge     Ge        0.556730000000016    0.000000000000000    0.122129999999970  0.0000
  Ge     Ge        0.156288054269511    0.278907136967927    0.272170193003047  0.0000
  Ge     Ge        0.657513123030507    0.687791411790116    0.698647887757074  0.0000
  Ge     Ge        0.848435643951840    0.636220975074958    0.695415888488829  0.0000
  Si     Si        0.041029720722458    0.994095022468516    0.353917425063522  0.0000
  Si     Si        0.445705059975229    0.993845502587592    0.365930702499813  0.0000
  Si     Si        0.946748734626820    0.942640741994980    0.610275110444691  0.0000
  Si     Si        0.539139531767512    0.972224641732293    0.624212910676384  0.0000
  Si     Si        0.937599590120262    0.980111885457670    0.097848457479070  0.0000
  Si     Si        0.440090583605703    0.958747497676855    0.881088567639775  0.0000
  Si     Si        0.051725536269959    0.966169223785120    0.859075110964114  0.0000
  Si     Si        0.332222884785454    0.698311813792450    0.263571483909424  0.0000
  Si     Si        0.826265092116256    0.232262666786867    0.710370191164691  0.0000
  Si     Si        0.646163489905105    0.276250793612859    0.712113632888157  0.0000
  Si     Si        0.151370546205387    0.689434654446988    0.266813821287021  0.0000
  Si     Si        0.340344989970798    0.295587538449320    0.270333379533304  0.0000
  Si     Si        0.646172776371790    0.315670625544137    0.017114883589865  0.0000
  Si     Si        0.850237700513470    0.658476286098012    0.999111903940328  0.0000
  Si     Si        0.339621612064039    0.277832291309835    0.964681840317049  0.0000
  Si     Si        0.149464438929391    0.660206770935506    0.963078442872549  0.0000
  Si     Si        0.330063754434177    0.673718599789726    0.959280929306298  0.0000
  Si     Si        0.158352339411292    0.258873753602120    0.963150802598741  0.0000
  Si     Si        0.665100657039258    0.712530683174762    0.000739216691726  0.0000
  Si     Si        0.825970220490035    0.271394019129666    0.018508081776480  0.0000
  O3     O3        0.096226722638668    0.160267679112892    0.367111126661565  0.0000
  O2     O2        0.385705000214559    0.835787656280606    0.341127435948557  0.0000
  O2     O2        0.872900829953054    0.069842679086618    0.644583220188404  0.0000
  O3     O3        0.600308405314676    0.814336061903080    0.599547972957061  0.0000
  O3     O3        0.913971585453761    0.748715169593433    0.603287136418902  0.0000
  O2     O2        0.586632956406528    0.152319084344222    0.633689885968110  0.0000
  O2     O2        0.096677201670073    0.822305677536436    0.350169169703917  0.0000
  O2     O2        0.402828252210476    0.180312903347406    0.346907594073274  0.0000
  O2     O2        0.981722852994407    0.991259810595941    0.472855722462398  0.0000
  O2     O2        0.474162661296528    0.985200060444804    0.513439776510511  0.0000
  O2     O2        0.990834371045746    0.004421081354204    0.223040078231413  0.0000
  O3     O3        0.521436210183300    0.977936323505951    0.275996008468808  0.0000
  O2     O2        0.014920883431787    0.966978527442701    0.716850117123748  0.0000
  O2     O2        0.495015694329365    0.938761603953967    0.757807625870411  0.0000
  O3     O3        0.586339271019586    0.212629093767152    0.102465658618350  0.0000
  O2     O2        0.896958800525946    0.790657162820974    0.096023001474111  0.0000
  O2     O2        0.396380679166291    0.147917979117025    0.882564783388477  0.0000
  O2     O2        0.093674305096177    0.778234218327846    0.876362669222259  0.0000
  O2     O2        0.376577027090242    0.803843459802391    0.870936324489547  0.0000
  O2     O2        0.113497855961760    0.123286660614815    0.867930050731169  0.0000
  O3     O3        0.636430648239855    0.858939713781819    0.103399396924389  0.0000
  O2     O2        0.871029000497344    0.131328516563870    0.103638035393021  0.0000
  O3     O3        0.486553138422843    0.934097299013029    0.013044306639076  0.0000
  O2     O2        0.986478767781853    0.003632467479856    0.967726914162468  0.0000
  O3     O3        0.130145604463765    0.495087627079203    0.299214043488893  0.0000
  O2     O2        0.357654770748895    0.501186369124148    0.297563119813507  0.0000
  O3     O3        0.854847092457375    0.414137150438447    0.657804418505143  0.0000
  O3     O3        0.633721203489491    0.471194326348374    0.669475719941435  0.0000
  O3     O3        0.253524865499698    0.252815790570430    0.313866670298887  0.0000
  O2     O2        0.241703443221064    0.729658929747772    0.302913180447244  0.0000
  O2     O2        0.734416048527767    0.209869936088439    0.678325594617868  0.0000
  O1     O1        0.755116155067755    0.708708246526190    0.668407580258807  0.0000
  O3     O3        0.144946289371326    0.212137253469709    0.111302965481358  0.0000
  O2     O2        0.341662804961961    0.727155848082160    0.110775125737791  0.0000
  O2     O2        0.837663273773432    0.231491145128248    0.865620400273443  0.0000
  O3     O3        0.635498396493865    0.753698407517638    0.857410638324019  0.0000
  O3     O3        0.881065316423247    0.672638330162302    0.854052116730796  0.0000
  O2     O2        0.631366705286401    0.260545230126496    0.866215969455707  0.0000
  O2     O2        0.137551619199798    0.718679604029580    0.113699342427141  0.0000
  O2     O2        0.351439097889905    0.246952966960851    0.117357942474278  0.0000
  O2     O2        0.633041737080003    0.523112026128359    0.040173653463534  0.0000
  O2     O2        0.860629034639825    0.463725370115518    0.053050094657214  0.0000
  O2     O2        0.361578160354916    0.475622493952628    0.931918627753201  0.0000
  O2     O2        0.127182322832719    0.456796849669068    0.941427140716205  0.0000
  O2     O2        0.734943543944586    0.263564504261754    0.056239451490540  0.0000
  O2     O2        0.758721721988632    0.705705589028850    0.991801372282817  0.0000
  O2     O2        0.249832849978486    0.242967424728991    0.927614727245540  0.0000
  O2     O2        0.238905307901705    0.687392896797238    0.921838189425848  0.0000
