data_c00994.vasp
_audit_creation_method             Generated by GULP
_audit_author_name                 Salvador R. G. Balestra
_symmetry_space_group_name_H-M     'P 1             '
_symmetry_Int_Tables_number        1

loop_
_symmetry_equiv_pos_site_id
_symmetry_equiv_pos_as_xyz
_cell_length_a                       17.1859
_cell_length_b                        7.6502
_cell_length_c                       10.1933
_cell_angle_alpha                   89.2211
_cell_angle_beta                    90.2744
_cell_angle_gamma                   90.1507

loop_
_atom_site_label
_atom_site_type_symbol
_atom_site_fract_x
_atom_site_fract_y
_atom_site_fract_z
_atom_site_charge
  Ge     Ge        0.556730000000016    0.000000000000000    0.122129999999970  0.0000
  Ge     Ge        0.333568483287206    0.712545311737115    0.300319116632814  0.0000
  Ge     Ge        0.833948750068040    0.293466766770384    0.719296557687656  0.0000
  Ge     Ge        0.167557685471986    0.283065897807964    0.977142788696783  0.0000
  Si     Si        0.049719254718401    0.981926056303990    0.383432274166138  0.0000
  Si     Si        0.448877509128792    0.000855798907118    0.379902299551676  0.0000
  Si     Si        0.947941126831173    0.000333184251933    0.637579691123623  0.0000
  Si     Si        0.546145562311984    0.016864677483854    0.637961132103468  0.0000
  Si     Si        0.946974948362597    0.999304025968042    0.131559823400608  0.0000
  Si     Si        0.442030953574298    0.006778852174748    0.881334672177144  0.0000
  Si     Si        0.055427932274729    0.997727269621128    0.890058105876646  0.0000
  Si     Si        0.164016010926740    0.273539806872474    0.289306746647233  0.0000
  Si     Si        0.660276103168167    0.723201568653882    0.738221745066938  0.0000
  Si     Si        0.839513297569623    0.702084201289591    0.720268425086913  0.0000
  Si     Si        0.651305884332213    0.317943714500378    0.734424927590383  0.0000
  Si     Si        0.151087782563868    0.677608009522264    0.291407726056867  0.0000
  Si     Si        0.342821272250587    0.305829652768487    0.296113264082023  0.0000
  Si     Si        0.657565543728641    0.317611349936509    0.040789042235754  0.0000
  Si     Si        0.850777981109173    0.687608049632832    0.027271100641684  0.0000
  Si     Si        0.348658038464232    0.320085237128860    0.987164441801995  0.0000
  Si     Si        0.152105918463622    0.684748711810318    0.984874280375532  0.0000
  Si     Si        0.332789400226790    0.718873329522979    0.988055990262531  0.0000
  Si     Si        0.672124794231182    0.715685798025687    0.043227443994959  0.0000
  Si     Si        0.837199421311453    0.287916816405474    0.031873972789472  0.0000
  O2     O2        0.113017382453306    0.137368442018569    0.373875868121893  0.0000
  O3     O3        0.387968336831076    0.844350543350556    0.400134585063303  0.0000
  O3     O3        0.893525235801876    0.168473258341243    0.624225777674808  0.0000
  O2     O2        0.605456432129626    0.856022473842027    0.658394328370188  0.0000
  O2     O2        0.891469199943683    0.832129912158194    0.632922525627129  0.0000
  O2     O2        0.589143730892617    0.202159512419582    0.655902464107132  0.0000
  O2     O2        0.089878469873689    0.792680965402652    0.371375521967232  0.0000
  O2     O2        0.400535342458546    0.181017701952477    0.377146170928408  0.0000
  O2     O2        0.011447774029123    0.991596562105868    0.525002680601235  0.0000
  O2     O2        0.515256130076826    0.008672302663832    0.489967419517755  0.0000
  O2     O2        0.981888999519077    0.004676389544274    0.276483268664102  0.0000
  O3     O3        0.490253536702435    0.969069452646780    0.242361939587568  0.0000
  O2     O2        0.993383278606365    0.003802127120573    0.774928707593671  0.0000
  O2     O2        0.471555206600341    0.003478705691331    0.732115216495410  0.0000
  O3     O3        0.599986687159726    0.203979071291968    0.128333031693959  0.0000
  O2     O2        0.910678553724320    0.807579921614888    0.106796960218892  0.0000
  O2     O2        0.412069343359756    0.201763541322485    0.914930816619340  0.0000
  O2     O2        0.097078929048882    0.809314236995106    0.897719395003859  0.0000
  O2     O2        0.373895683338096    0.862277026418947    0.895174513390882  0.0000
  O3     O3        0.120459043772474    0.144989029464439    0.872226034410044  0.0000
  O3     O3        0.629719044906677    0.845456863357703    0.137684250438060  0.0000
  O2     O2        0.882416450026307    0.150694617221830    0.124258794533341  0.0000
  O3     O3        0.512887969925612    0.957101206105538    0.974454136876189  0.0000
  O2     O2        0.013866584559797    0.042868874772235    0.027030962933054  0.0000
  O2     O2        0.132607058060624    0.470923726445702    0.308710559695810  0.0000
  O3     O3        0.366019139498576    0.501991524157216    0.325396398273161  0.0000
  O3     O3        0.860501086155074    0.506524740444635    0.686477575116043  0.0000
  O2     O2        0.632862029717234    0.523955373920062    0.713514568988886  0.0000
  O2     O2        0.253740181232173    0.265460816933627    0.337892772989360  0.0000
  O3     O3        0.236709773142930    0.720088752018564    0.342583823525334  0.0000
  O3     O3        0.736337819161929    0.273171133210827    0.682428400605041  0.0000
  O2     O2        0.748962060509138    0.743531272946739    0.689015869771072  0.0000
  O3     O3        0.160210533960513    0.218434829920198    0.139011613474313  0.0000
  O3     O3        0.342672577686703    0.775331029944305    0.137624312598076  0.0000
  O3     O3        0.846583141872433    0.234917722532683    0.881856295517721  0.0000
  O2     O2        0.657467015661900    0.770745276025735    0.891293220748717  0.0000
  O2     O2        0.856998700019780    0.735158241226353    0.873814504078011  0.0000
  O2     O2        0.644561260866912    0.268336623152864    0.888395024092778  0.0000
  O2     O2        0.143607392443055    0.730569692967760    0.138168149259955  0.0000
  O2     O2        0.350692264684002    0.269587194169164    0.141057037931762  0.0000
  O2     O2        0.639201372389304    0.520052690507963    0.065651725916616  0.0000
  O2     O2        0.871667592976236    0.483749561295410    0.050999243821763  0.0000
  O2     O2        0.369919029285968    0.525854346369880    0.968825455068177  0.0000
  O3     O3        0.127726487309422    0.488582493123958    0.957785270484992  0.0000
  O2     O2        0.747488763636351    0.279899803730922    0.075614873896258  0.0000
  O2     O2        0.763733859295170    0.722733583645722    0.076224309139631  0.0000
  O3     O3        0.263828504250389    0.284216804152698    0.930522713423732  0.0000
  O2     O2        0.242336903080721    0.712527094595338    0.946737556795366  0.0000
