data_c00939.vasp
_audit_creation_method             Generated by GULP
_audit_author_name                 Salvador R. G. Balestra
_symmetry_space_group_name_H-M     'P 1             '
_symmetry_Int_Tables_number        1

loop_
_symmetry_equiv_pos_site_id
_symmetry_equiv_pos_as_xyz
_cell_length_a                       17.0917
_cell_length_b                        7.6221
_cell_length_c                       10.3039
_cell_angle_alpha                   89.9839
_cell_angle_beta                    90.0117
_cell_angle_gamma                   89.5648

loop_
_atom_site_label
_atom_site_type_symbol
_atom_site_fract_x
_atom_site_fract_y
_atom_site_fract_z
_atom_site_charge
  Ge     Ge        0.556730000000016    0.000000000000000    0.122129999999970  0.0000
  Ge     Ge        0.151016755782203    0.329046930885835    0.277857172202444  0.0000
  Ge     Ge        0.666953033026484    0.282499624629337    0.706657113784274  0.0000
  Ge     Ge        0.331713241170685    0.284825807214200    0.966182611260718  0.0000
  Si     Si        0.047228855357549    0.019197933297967    0.359249179572469  0.0000
  Si     Si        0.449105617598076    0.994915534640184    0.372941268228728  0.0000
  Si     Si        0.953998102642321    0.007127373323799    0.621615394784999  0.0000
  Si     Si        0.549329587822079    0.996575897682111    0.625734094920359  0.0000
  Si     Si        0.944864107489528    0.002757933174669    0.105211323094497  0.0000
  Si     Si        0.445462188590144    0.001406943713011    0.878008291855021  0.0000
  Si     Si        0.059349181848402    0.010485570441265    0.870707649573269  0.0000
  Si     Si        0.346926003245674    0.692981859814277    0.269639887353961  0.0000
  Si     Si        0.850805090975704    0.316809504758202    0.705179805622500  0.0000
  Si     Si        0.656553109373050    0.695891587413452    0.707786749740750  0.0000
  Si     Si        0.837298127503223    0.719383174175902    0.710489704694218  0.0000
  Si     Si        0.166672673266210    0.736845045176663    0.268945689833943  0.0000
  Si     Si        0.332871503169542    0.286838738387559    0.276695080641389  0.0000
  Si     Si        0.670668736475847    0.280542038721195    0.012013359924054  0.0000
  Si     Si        0.833841309846515    0.716441782418769    0.014097027840515  0.0000
  Si     Si        0.170548038777036    0.724767484586217    0.966042901395661  0.0000
  Si     Si        0.352403865508101    0.685772099977733    0.969154789038091  0.0000
  Si     Si        0.149840658694561    0.328589614583684    0.966027261844516  0.0000
  Si     Si        0.653755103026416    0.684967180368959    0.008289594921836  0.0000
  Si     Si        0.850854012832869    0.319867647690202    0.009594633408983  0.0000
  O3     O3        0.081843662273803    0.212845973439299    0.362115463201712  0.0000
  O2     O2        0.404834955463720    0.810245014290968    0.354517203633212  0.0000
  O2     O2        0.912920087972595    0.198464546356584    0.626264074219187  0.0000
  O2     O2        0.600528046947243    0.817683654020831    0.620377592919728  0.0000
  O2     O2        0.888232519023361    0.857551957583637    0.631002742517027  0.0000
  O3     O3        0.608479932617939    0.156291932989819    0.609291249261111  0.0000
  O2     O2        0.121700381512831    0.887785388403098    0.347944438331135  0.0000
  O2     O2        0.389625460998667    0.158457831432226    0.357465071270377  0.0000
  O2     O2        0.998598020497462    0.980424178624827    0.487597215897779  0.0000
  O2     O2        0.482384576347592    0.996218677592453    0.518153480119507  0.0000
  O2     O2        0.989244025810506    0.987789610832453    0.239799411392332  0.0000
  O3     O3        0.521815950259004    0.010086166275834    0.277360639379149  0.0000
  O2     O2        0.017770174389148    0.987054492273000    0.734023677433695  0.0000
  O2     O2        0.507750536268673    0.015027315205323    0.764596052629501  0.0000
  O3     O3        0.629377154631829    0.155282972457999    0.112545093504780  0.0000
  O2     O2        0.876720293323126    0.857976717599872    0.103350362004232  0.0000
  O3     O3        0.375564342162014    0.139520795637356    0.862082692675809  0.0000
  O2     O2        0.131631214969050    0.872656392385507    0.875568981004656  0.0000
  O2     O2        0.409559784548253    0.805623415725162    0.883881196310757  0.0000
  O2     O2        0.088882584006720    0.210274082654597    0.885079226833134  0.0000
  O3     O3        0.593618093156016    0.791300591949344    0.095116294763826  0.0000
  O2     O2        0.909193531271111    0.198705962143366    0.092783475473393  0.0000
  O3     O3        0.484952757886508    0.055821537670250    0.013502276159943  0.0000
  O2     O2        0.001819969990314    0.958556722439991    0.986633722764459  0.0000
  O3     O3        0.131037822227273    0.549033823490167    0.299971000328676  0.0000
  O2     O2        0.364446553061541    0.486822651879196    0.289550894147251  0.0000
  O2     O2        0.867196986741638    0.522442063125692    0.679026375947947  0.0000
  O3     O3        0.636316951930792    0.496145253693538    0.684165152258484  0.0000
  O3     O3        0.245069982330154    0.281467354017900    0.329785994748348  0.0000
  O2     O2        0.257911776868767    0.736477076952085    0.310294212056618  0.0000
  O3     O3        0.764085984183464    0.268428938582313    0.661817363898428  0.0000
  O2     O2        0.746595239023517    0.736041735273189    0.669141334968810  0.0000
  O3     O3        0.143553840481440    0.275569495270741    0.115958186384066  0.0000
  O2     O2        0.362152953384745    0.743101402926032    0.119630009250476  0.0000
  O2     O2        0.861955260300264    0.276505904145961    0.857908577323917  0.0000
  O2     O2        0.643423848646200    0.745671095783037    0.859014218137238  0.0000
  O2     O2        0.844786417423118    0.762769209527394    0.862817777560496  0.0000
  O3     O3        0.658462477778595    0.213871148922985    0.865620503841194  0.0000
  O2     O2        0.161605142424434    0.780071038381717    0.115959254505446  0.0000
  O3     O3        0.333570161718622    0.226324584314755    0.127697630701114  0.0000
  O2     O2        0.636273625721199    0.478568557608408    0.020052812918225  0.0000
  O2     O2        0.869876605243985    0.522706078217607    0.040552618421814  0.0000
  O3     O3        0.376355207163595    0.486593245104586    0.949064902803467  0.0000
  O2     O2        0.129763627970840    0.535702865903844    0.945797507974872  0.0000
  O2     O2        0.762180135036126    0.280486276545564    0.048508310343392  0.0000
  O2     O2        0.742743918691133    0.722944148694184    0.052388021795553  0.0000
  O3     O3        0.236335952887212    0.294768715785914    0.914566970087468  0.0000
  O2     O2        0.261772988930309    0.712224095930752    0.928186515184371  0.0000
