data_c00961.vasp
_audit_creation_method             Generated by GULP
_audit_author_name                 Salvador R. G. Balestra
_symmetry_space_group_name_H-M     'P 1             '
_symmetry_Int_Tables_number        1

loop_
_symmetry_equiv_pos_site_id
_symmetry_equiv_pos_as_xyz
_cell_length_a                       16.9867
_cell_length_b                        7.5985
_cell_length_c                       10.3310
_cell_angle_alpha                   90.7558
_cell_angle_beta                    90.7320
_cell_angle_gamma                   89.4637

loop_
_atom_site_label
_atom_site_type_symbol
_atom_site_fract_x
_atom_site_fract_y
_atom_site_fract_z
_atom_site_charge
  Ge     Ge        0.556730000000016    0.000000000000000    0.122129999999970  0.0000
  Ge     Ge        0.162829194342791    0.254674940156401    0.268903066867446  0.0000
  Ge     Ge        0.647084865049668    0.326556936888411    0.019756624716848  0.0000
  Ge     Ge        0.165886312743815    0.249612587863117    0.955131790591947  0.0000
  Si     Si        0.042487321620284    0.977016602605808    0.352504073934299  0.0000
  Si     Si        0.446903027785293    0.988197669293383    0.362957028782277  0.0000
  Si     Si        0.940007210135461    0.961519753203661    0.604029779859270  0.0000
  Si     Si        0.540237974987734    0.987608685724308    0.627189182149368  0.0000
  Si     Si        0.947804684563512    0.988745039574208    0.087678580849681  0.0000
  Si     Si        0.441588354721814    0.978941711730440    0.882983044500667  0.0000
  Si     Si        0.054835099360357    0.969355196327922    0.847040441307001  0.0000
  Si     Si        0.328811599337522    0.703075942245003    0.268697944039913  0.0000
  Si     Si        0.825181811786003    0.257780157335676    0.703484022772309  0.0000
  Si     Si        0.658918792020926    0.700224676522959    0.705614223633785  0.0000
  Si     Si        0.839796892289981    0.659638007074279    0.693081007368934  0.0000
  Si     Si        0.645141310316448    0.293474773098407    0.712982136907936  0.0000
  Si     Si        0.146633421450631    0.670676710637298    0.262991100391887  0.0000
  Si     Si        0.343294075937764    0.301720905714114    0.271066936874787  0.0000
  Si     Si        0.853600920240996    0.668750323550319    0.993227903821709  0.0000
  Si     Si        0.345957741078043    0.304390647053478    0.963585058218328  0.0000
  Si     Si        0.145276419554238    0.658243774705149    0.963891529035329  0.0000
  Si     Si        0.327955404822167    0.698556354231632    0.966661624840560  0.0000
  Si     Si        0.671894327154744    0.728011241092507    0.006184235840977  0.0000
  Si     Si        0.831415823273530    0.276177292038806    0.007466159472055  0.0000
  O3     O3        0.106201138407310    0.129047645838889    0.368121879397662  0.0000
  O2     O2        0.377357297508722    0.845637817278750    0.351732409517520  0.0000
  O2     O2        0.876244220689033    0.117406912443895    0.623364968189092  0.0000
  O2     O2        0.604712427257960    0.829351696788822    0.619398266741064  0.0000
  O2     O2        0.895597296263467    0.774536532837321    0.603469513356574  0.0000
  O2     O2        0.584208209976183    0.174885335130492    0.630037396959204  0.0000
  O2     O2        0.088762578821333    0.790256923686348    0.349589355749863  0.0000
  O2     O2        0.413102520667017    0.182799434574664    0.330855242198693  0.0000
  O2     O2        0.980327538941138    0.981779159308965    0.466880121175710  0.0000
  O2     O2        0.481558300333267    0.983153448264341    0.506389898670081  0.0000
  O2     O2        0.995568154701358    0.010342411759519    0.219507185146766  0.0000
  O3     O3        0.517759564894306    0.945327065631723    0.267656605016456  0.0000
  O2     O2        0.006932715764931    0.969144744218835    0.713902965014789  0.0000
  O2     O2        0.486070327536837    0.960173694043227    0.749819650645088  0.0000
  O1     O1        0.582004008405726    0.216428653254322    0.112787516535205  0.0000
  O2     O2        0.913504244261981    0.791669418676227    0.073510639696844  0.0000
  O2     O2        0.414580412809203    0.182437034439819    0.904015188185539  0.0000
  O2     O2        0.089477883573721    0.774018060588418    0.871279561807483  0.0000
  O2     O2        0.366777405591773    0.847946300869913    0.880599414766582  0.0000
  O3     O3        0.124034922770078    0.108702738820356    0.843012594076040  0.0000
  O3     O3        0.644262402467763    0.886361845476566    0.095326518930228  0.0000
  O2     O2        0.877698639679094    0.131753185055196    0.090741235039715  0.0000
  O3     O3        0.495561970445574    0.921142068658996    0.001324499166056  0.0000
  O2     O2        0.002294991488331    0.036016962717454    0.967552607456451  0.0000
  O3     O3        0.128495793510651    0.468912881323291    0.281144979969051  0.0000
  O2     O2        0.361949385164492    0.507624267095105    0.299436924824693  0.0000
  O2     O2        0.856095472293835    0.452472681571128    0.669819813753314  0.0000
  O2     O2        0.627673991142017    0.500745849861891    0.691242627993330  0.0000
  O3     O3        0.259466744121452    0.251555014020563    0.326102168172639  0.0000
  O2     O2        0.236926044107538    0.713999171393644    0.304890977616328  0.0000
  O2     O2        0.733148848528021    0.244843039877496    0.664622979734938  0.0000
  O2     O2        0.749095269772685    0.706228839060116    0.658745946176252  0.0000
  O1     O1        0.159558590996969    0.180673581959135    0.111664531891304  0.0000
  O2     O2        0.338192066687399    0.749159488780252    0.117976735603414  0.0000
  O2     O2        0.831737434563419    0.220405296034530    0.855943730989057  0.0000
  O2     O2        0.656389510411811    0.766620628922940    0.853981690170087  0.0000
  O2     O2        0.861141789932859    0.711369739734606    0.841321435714015  0.0000
  O3     O3        0.634168666138326    0.250203307527784    0.862189151320753  0.0000
  O2     O2        0.133447502854097    0.721760177303442    0.112468204455372  0.0000
  O2     O2        0.338761579545420    0.269039479468706    0.116723245098285  0.0000
  O3     O3        0.627905592433396    0.547898815956916    0.038024009661653  0.0000
  O2     O2        0.874760667330412    0.465541708749972    0.021973610072484  0.0000
  O2     O2        0.368720899508201    0.508081687319836    0.939560071291872  0.0000
  O3     O3        0.123275373358983    0.457209833769981    0.946535771296588  0.0000
  O3     O3        0.744471016440383    0.286856527909438    0.061188389756297  0.0000
  O2     O2        0.764466088463126    0.702553851446889    0.035064347953571  0.0000
  O3     O3        0.262116641564345    0.261596585441952    0.902874009307555  0.0000
  O2     O2        0.236411621594017    0.687553019759433    0.927495710019917  0.0000
