data_c00993.vasp
_audit_creation_method             Generated by GULP
_audit_author_name                 Salvador R. G. Balestra
_symmetry_space_group_name_H-M     'P 1             '
_symmetry_Int_Tables_number        1

loop_
_symmetry_equiv_pos_site_id
_symmetry_equiv_pos_as_xyz
_cell_length_a                       17.1021
_cell_length_b                        7.5981
_cell_length_c                       10.3041
_cell_angle_alpha                   89.3140
_cell_angle_beta                    89.8677
_cell_angle_gamma                   89.8345

loop_
_atom_site_label
_atom_site_type_symbol
_atom_site_fract_x
_atom_site_fract_y
_atom_site_fract_z
_atom_site_charge
  Ge     Ge        0.556730000000016    0.000000000000000    0.122129999999970  0.0000
  Ge     Ge        0.348761445845351    0.680233521437632    0.299671510349935  0.0000
  Ge     Ge        0.851077238460284    0.333793052050137    0.720978366820265  0.0000
  Ge     Ge        0.352762683465447    0.674061536695706    0.983464025620923  0.0000
  Si     Si        0.047880267944447    0.001234950819029    0.382784253746892  0.0000
  Si     Si        0.451333734687706    0.989404989153567    0.381910717853060  0.0000
  Si     Si        0.954762885535622    0.022109091565116    0.644373211544789  0.0000
  Si     Si        0.549542204453570    0.014747530214335    0.636886702343200  0.0000
  Si     Si        0.942141190455805    0.010267194823669    0.136334137344143  0.0000
  Si     Si        0.444666773430851    0.994595432338261    0.879649550860635  0.0000
  Si     Si        0.056497314743940    0.002373648930404    0.900290367648661  0.0000
  Si     Si        0.151617471609970    0.307360115182372    0.293594774955755  0.0000
  Si     Si        0.653208151402102    0.707175867896209    0.737401562527715  0.0000
  Si     Si        0.833394335956225    0.744773074599725    0.733234180331946  0.0000
  Si     Si        0.667757135980579    0.299836457663461    0.727143710562701  0.0000
  Si     Si        0.166961015157563    0.710793396282797    0.291923145834664  0.0000
  Si     Si        0.332212365797348    0.267388543589101    0.296085554591076  0.0000
  Si     Si        0.673853780206562    0.283783462918312    0.029902833059149  0.0000
  Si     Si        0.832564208902039    0.725709717993873    0.036874386642856  0.0000
  Si     Si        0.332193027844389    0.267747487625569    0.992379739981589  0.0000
  Si     Si        0.170555777211889    0.710167901195113    0.984952120441234  0.0000
  Si     Si        0.151267690845348    0.314639784220605    0.992656562864656  0.0000
  Si     Si        0.652256233676224    0.680917693943100    0.037937330418220  0.0000
  Si     Si        0.853929155127606    0.328927109614348    0.029773079138298  0.0000
  O2     O2        0.092890052613748    0.187890762720122    0.378195720118804  0.0000
  O3     O3        0.416182866505663    0.795327203829507    0.389981271374891  0.0000
  O3     O3        0.919507554216891    0.216665357963761    0.634064013654446  0.0000
  O2     O2        0.593818534558577    0.828105245601156    0.655425108797239  0.0000
  O2     O2        0.879292596599762    0.894497432702167    0.653660812670972  0.0000
  O2     O2        0.610365655972987    0.174982075691397    0.647330957510526  0.0000
  O2     O2        0.109238731831614    0.844063468499450    0.362679077260448  0.0000
  O2     O2        0.376977735929558    0.123250959495778    0.383842783263840  0.0000
  O2     O2        0.007754890487817    0.976590213854863    0.521543645900765  0.0000
  O2     O2        0.512681126578438    0.023393604509065    0.495217052325045  0.0000
  O2     O2        0.980010295799564    0.993287931955193    0.276718176380122  0.0000
  O3     O3        0.497322241713966    0.032412112543192    0.250532819668027  0.0000
  O2     O2        0.008231668956286    0.989829061207137    0.769704336350865  0.0000
  O2     O2        0.477904580662114    0.033876946999327    0.736610925548071  0.0000
  O3     O3        0.635318229561564    0.142185134511367    0.122485219701933  0.0000
  O2     O2        0.872617189807117    0.868045959124397    0.128404050097792  0.0000
  O2     O2        0.367036666189466    0.112524268823284    0.905499616371894  0.0000
  O2     O2        0.123217142215744    0.853315023434245    0.901576378809005  0.0000
  O3     O3        0.419902817964683    0.792261889153243    0.893207129709145  0.0000
  O2     O2        0.095282138085007    0.195742838963337    0.905567480031182  0.0000
  O3     O3        0.592848705412192    0.786552311113619    0.126179159343783  0.0000
  O2     O2        0.909962313821961    0.208616191072905    0.119268443318868  0.0000
  O3     O3        0.508842654149885    0.053194509448334    0.981469753176918  0.0000
  O2     O2        0.003774485075820    0.962812593311082    0.025339753634691  0.0000
  O2     O2        0.134552014391541    0.513048282555673    0.316733673635472  0.0000
  O3     O3        0.366561813355836    0.458498399317770    0.321167698809129  0.0000
  O3     O3        0.866546708572738    0.555519112170471    0.696822484669370  0.0000
  O2     O2        0.638198425586304    0.501676971551360    0.709865935479592  0.0000
  O2     O2        0.240519617065945    0.263883308173767    0.334114611686839  0.0000
  O3     O3        0.253748093648507    0.726041208131163    0.347022772180042  0.0000
  O3     O3        0.756026023418558    0.285307928269194    0.677188551929409  0.0000
  O2     O2        0.741653655779048    0.755846092466926    0.696715721125380  0.0000
  O2     O2        0.137716806153946    0.261191448692596    0.142981285756275  0.0000
  O1     O1        0.365130840351450    0.737475852920313    0.140821775569592  0.0000
  O3     O3        0.868518666514590    0.280138449195916    0.881591859014551  0.0000
  O2     O2        0.638702141071313    0.746572967268923    0.889117399956609  0.0000
  O2     O2        0.841890521222686    0.781026415806676    0.886543097766137  0.0000
  O2     O2        0.666285624812738    0.238367875831299    0.877681607371882  0.0000
  O2     O2        0.173304617673632    0.753807016114946    0.138155394187752  0.0000
  O2     O2        0.340881488854361    0.218424977972562    0.144559171470508  0.0000
  O2     O2        0.634038265865712    0.474486991168520    0.053066457420870  0.0000
  O2     O2        0.872438835842076    0.533889591529347    0.056998000670922  0.0000
  O3     O3        0.373836508481328    0.452634607099526    0.966288028400482  0.0000
  O2     O2        0.130280798741907    0.518908404028087    0.966753269058048  0.0000
  O2     O2        0.764549102740708    0.291685198713781    0.067313780840071  0.0000
  O2     O2        0.741763494688552    0.719396677327024    0.076614378934120  0.0000
  O2     O2        0.241214026587394    0.283959677010485    0.954954430709630  0.0000
  O3     O3        0.258034083558826    0.709088010802803    0.932411511969744  0.0000
