data_c00925.vasp
_audit_creation_method             Generated by GULP
_audit_author_name                 Salvador R. G. Balestra
_symmetry_space_group_name_H-M     'P 1             '
_symmetry_Int_Tables_number        1

loop_
_symmetry_equiv_pos_site_id
_symmetry_equiv_pos_as_xyz
_cell_length_a                       17.0886
_cell_length_b                        7.6449
_cell_length_c                       10.2558
_cell_angle_alpha                   91.0377
_cell_angle_beta                    90.3900
_cell_angle_gamma                   89.3539

loop_
_atom_site_label
_atom_site_type_symbol
_atom_site_fract_x
_atom_site_fract_y
_atom_site_fract_z
_atom_site_charge
  Ge     Ge        0.556730000000016    0.000000000000000    0.122129999999970  0.0000
  Ge     Ge        0.158962167573497    0.276266474001264    0.274733196818770  0.0000
  Ge     Ge        0.662741159510848    0.700703190871685    0.704457185110774  0.0000
  Ge     Ge        0.827483223209359    0.258427937074797    0.016925142279908  0.0000
  Si     Si        0.046218854962187    0.985316588924056    0.359383746131511  0.0000
  Si     Si        0.448888783804592    0.993061750141555    0.368228743207220  0.0000
  Si     Si        0.944931042102451    0.958778685569624    0.612921960689423  0.0000
  Si     Si        0.542657032906093    0.987157443435911    0.628604832802400  0.0000
  Si     Si        0.942153414697641    0.973850039256384    0.103457465879284  0.0000
  Si     Si        0.439995904268335    0.971828484298203    0.882256506779368  0.0000
  Si     Si        0.050549735304382    0.983666747028296    0.862652408442722  0.0000
  Si     Si        0.336143211728614    0.698323123211757    0.264789628207096  0.0000
  Si     Si        0.828547874628369    0.250223111318985    0.706015374894221  0.0000
  Si     Si        0.846105094201470    0.652699931376699    0.703311645594143  0.0000
  Si     Si        0.649019089817493    0.292274741524514    0.709604628778189  0.0000
  Si     Si        0.155382200602498    0.686766823255306    0.272403428190497  0.0000
  Si     Si        0.342887982025560    0.295774450179698    0.269748997389331  0.0000
  Si     Si        0.646240718562545    0.317708283448583    0.014795055444643  0.0000
  Si     Si        0.851645104187964    0.655431248741517    0.008024854434428  0.0000
  Si     Si        0.340000505187668    0.289400993453755    0.963335732563829  0.0000
  Si     Si        0.149299894365559    0.673422169502159    0.967962803452825  0.0000
  Si     Si        0.329852243835821    0.686399932393155    0.959678136830506  0.0000
  Si     Si        0.159158296689109    0.271070499127719    0.964348181163454  0.0000
  Si     Si        0.670789467277975    0.714138200162512    0.011837732078467  0.0000
  O3     O3        0.099710740564670    0.154936450983670    0.371579437871201  0.0000
  O2     O2        0.389920106811457    0.832614702993072    0.344241211934026  0.0000
  O2     O2        0.878149460082932    0.109007960810006    0.622115643219007  0.0000
  O3     O3        0.605883260966337    0.833545051849089    0.608484999848968  0.0000
  O2     O2        0.907307185660906    0.766731396842335    0.622767714793756  0.0000
  O2     O2        0.588747511660182    0.169970456620279    0.631152207725557  0.0000
  O2     O2        0.103705944392238    0.817145388093893    0.360729952413905  0.0000
  O2     O2        0.405595491805420    0.178140668879567    0.345412638427691  0.0000
  O2     O2        0.983852154308226    0.973032414951691    0.472909379515217  0.0000
  O2     O2        0.477128909279606    0.988393406946111    0.517131719504559  0.0000
  O2     O2        0.000212527336885    0.992777970682204    0.223413006581825  0.0000
  O3     O3        0.524386892724334    0.978320010308765    0.278677331000557  0.0000
  O2     O2        0.012324555499997    0.986008155172795    0.720565801556557  0.0000
  O2     O2        0.499512096921917    0.955442871192681    0.764399756929109  0.0000
  O3     O3        0.582690871574850    0.213975878427425    0.094221734676438  0.0000
  O2     O2        0.909518722292166    0.777019754101648    0.092616128702481  0.0000
  O2     O2        0.397403498810250    0.162162353820471    0.881597930345963  0.0000
  O2     O2        0.091375567261834    0.794615513050810    0.884588746588918  0.0000
  O2     O2        0.375375776849086    0.819078580179240    0.869007480528444  0.0000
  O2     O2        0.113286209982251    0.139226036216648    0.868496832772168  0.0000
  O3     O3        0.635777431671682    0.858586332608565    0.108021378016541  0.0000
  O3     O3        0.870978523047663    0.108999151148109    0.117495352322356  0.0000
  O3     O3        0.484631237303796    0.936170274710708    0.015693281051160  0.0000
  O2     O2        0.985295960403606    0.026131703928857    0.970494718493865  0.0000
  O3     O3        0.132774952613770    0.491483599100266    0.302378141523191  0.0000
  O2     O2        0.362368992934927    0.499938084189226    0.296102880019898  0.0000
  O2     O2        0.862130808439145    0.444646941114360    0.683113972667954  0.0000
  O3     O3        0.627738960116208    0.491331793724161    0.684351671422500  0.0000
  O3     O3        0.256602520013716    0.251971598209775    0.315778936629779  0.0000
  O2     O2        0.246131106888889    0.724285615588991    0.306699355166273  0.0000
  O2     O2        0.737424364699149    0.247510201131251    0.661653722841478  0.0000
  O3     O3        0.759390179196767    0.700043900072417    0.656612548108926  0.0000
  O3     O3        0.147612328443390    0.216813128893143    0.112702808716864  0.0000
  O2     O2        0.343503158248309    0.735125906275499    0.111535727627426  0.0000
  O3     O3        0.833107779460523    0.195975543457164    0.855259125817281  0.0000
  O3     O3        0.659485388934972    0.775452802864775    0.864060503923943  0.0000
  O2     O2        0.858239958914205    0.701868390622396    0.855595279322259  0.0000
  O2     O2        0.643700673406720    0.253595962368859    0.863611122370138  0.0000
  O2     O2        0.139853599057218    0.725192155698227    0.119717206872406  0.0000
  O2     O2        0.351706269211415    0.251704096201938    0.116022487665594  0.0000
  O2     O2        0.628807110497977    0.525747825017103    0.024857269182707  0.0000
  O3     O3        0.874043803252005    0.457579004207405    0.034559359250873  0.0000
  O2     O2        0.361130296872169    0.489101227863896    0.931337176322317  0.0000
  O2     O2        0.127721218285266    0.469951077039508    0.945274571177975  0.0000
  O3     O3        0.732245152298282    0.274510998738005    0.068807927166154  0.0000
  O2     O2        0.761845895622200    0.689112689175228    0.048614237320959  0.0000
  O2     O2        0.250113526342456    0.255748311058524    0.925418700774741  0.0000
  O2     O2        0.238301683145550    0.702956427092129    0.924251221135604  0.0000
