data_c00982.vasp
_audit_creation_method             Generated by GULP
_audit_author_name                 Salvador R. G. Balestra
_symmetry_space_group_name_H-M     'P 1             '
_symmetry_Int_Tables_number        1

loop_
_symmetry_equiv_pos_site_id
_symmetry_equiv_pos_as_xyz
_cell_length_a                       17.0069
_cell_length_b                        7.5912
_cell_length_c                       10.3178
_cell_angle_alpha                   89.3171
_cell_angle_beta                    90.4778
_cell_angle_gamma                   89.9166

loop_
_atom_site_label
_atom_site_type_symbol
_atom_site_fract_x
_atom_site_fract_y
_atom_site_fract_z
_atom_site_charge
  Ge     Ge        0.556730000000016    0.000000000000000    0.122129999999970  0.0000
  Ge     Ge        0.147492646469556    0.347298943688326    0.268918606998453  0.0000
  Ge     Ge        0.144837862405905    0.363396532867180    0.953286402203385  0.0000
  Ge     Ge        0.647047989934955    0.674057162297295    0.014424875200141  0.0000
  Si     Si        0.043834369440690    0.036408353652262    0.352996813020193  0.0000
  Si     Si        0.449429909254122    0.024240848685092    0.366762158751283  0.0000
  Si     Si        0.945452247353400    0.026365843698681    0.609122229987959  0.0000
  Si     Si        0.544788688543290    0.019903578517506    0.626430143869900  0.0000
  Si     Si        0.944119696770126    0.018198778494108    0.094467599103137  0.0000
  Si     Si        0.443467602716831    0.039093533967670    0.880398700904704  0.0000
  Si     Si        0.053635397855393    0.044252020579442    0.854802406701036  0.0000
  Si     Si        0.346004949793028    0.720492159364556    0.267063160006407  0.0000
  Si     Si        0.845062953765833    0.335719956175333    0.696208526807129  0.0000
  Si     Si        0.647736355169316    0.706886445670048    0.706665068727260  0.0000
  Si     Si        0.827549268202211    0.739333680265436    0.703460766452164  0.0000
  Si     Si        0.663987566764973    0.300111143676520    0.700013904905273  0.0000
  Si     Si        0.164599122712028    0.761452924949009    0.264534302336802  0.0000
  Si     Si        0.330208742085274    0.315665884324780    0.265672700230926  0.0000
  Si     Si        0.670002040447744    0.273798782468149    0.001354721276486  0.0000
  Si     Si        0.830612036919062    0.728822177980268    0.007656324507198  0.0000
  Si     Si        0.328145265730796    0.325866328731037    0.958991998411286  0.0000
  Si     Si        0.166445439666604    0.768722083383227    0.961374081732874  0.0000
  Si     Si        0.348426566163609    0.721036913672701    0.966745655730052  0.0000
  Si     Si        0.851429029252088    0.336085258081260    0.996434021622792  0.0000
  O3     O3        0.079607921414329    0.230125854819863    0.358560986582177  0.0000
  O2     O2        0.406412229276599    0.835973856785903    0.350204156953742  0.0000
  O2     O2        0.904099570675715    0.218930181028660    0.611351973614513  0.0000
  O2     O2        0.586472030266546    0.828122840996331    0.624707085461962  0.0000
  O2     O2        0.878449876366250    0.878249759596197    0.622699266582131  0.0000
  O2     O2        0.611808678540028    0.170604714200032    0.612054378986056  0.0000
  O2     O2        0.118371461837044    0.903077608311426    0.349659513905912  0.0000
  O2     O2        0.388093127939257    0.181151442440609    0.338588453969008  0.0000
  O2     O2        0.989037675582692    0.999114017097074    0.474996687717911  0.0000
  O2     O2        0.481461740512834    0.036022049613786    0.512238252683616  0.0000
  O2     O2        0.990766643580678    0.001245578165629    0.227365938541063  0.0000
  O3     O3        0.523885243329418    0.041366679435680    0.274729149191895  0.0000
  O2     O2        0.010737200314483    0.002808168766244    0.720683858320871  0.0000
  O2     O2        0.498387682688752    0.054750381955595    0.757512500332779  0.0000
  O3     O3        0.643079226146231    0.113948921767047    0.089104475239122  0.0000
  O2     O2        0.876186403481311    0.871673472079773    0.092669911175170  0.0000
  O2     O2        0.374798916931185    0.185343354449192    0.874513301769783  0.0000
  O2     O2        0.132393196165523    0.924935103806625    0.870668919514722  0.0000
  O2     O2        0.406433933240266    0.842388213631569    0.882966696814147  0.0000
  O3     O3        0.079204204943080    0.246151304381694    0.859195540851590  0.0000
  O1     O1        0.580793499737647    0.783433902604395    0.106515935880704  0.0000
  O2     O2        0.907455423494758    0.214257220444969    0.084869762632718  0.0000
  O3     O3        0.490415728023334    0.080153064599763    0.010199112270960  0.0000
  O2     O2        0.999510323999267    0.983180798307152    0.973471495549460  0.0000
  O3     O3        0.130486728587965    0.569190117460377    0.289592476988211  0.0000
  O2     O2        0.362215896080171    0.513647140600124    0.290423306913047  0.0000
  O2     O2        0.860095036246076    0.543452731719290    0.673605723832227  0.0000
  O2     O2        0.632039450223358    0.499593626819844    0.682651676033883  0.0000
  O3     O3        0.242794762011755    0.298998872757390    0.318685595396498  0.0000
  O2     O2        0.256706569351120    0.765799869930707    0.305281671074737  0.0000
  O2     O2        0.755156273266205    0.290349311650794    0.657898058289604  0.0000
  O2     O2        0.736309705484106    0.753198285838065    0.660717678830195  0.0000
  O1     O1        0.133043432033770    0.294561707877976    0.110046356941990  0.0000
  O2     O2        0.362224447232667    0.770856356541145    0.117097294901308  0.0000
  O2     O2        0.863552585798718    0.286096840794130    0.846086851270597  0.0000
  O3     O3        0.635877945084136    0.748505175841815    0.856152768021907  0.0000
  O2     O2        0.831796378278931    0.782528045954676    0.855644127404113  0.0000
  O2     O2        0.658167180968887    0.234925311576396    0.848592745876489  0.0000
  O2     O2        0.157602477778286    0.814572008880162    0.112980931531133  0.0000
  O2     O2        0.325683343237491    0.276064783923440    0.112038248292879  0.0000
  O3     O3        0.624981570087986    0.454050171063918    0.032244243829352  0.0000
  O2     O2        0.874050337002317    0.538649780730691    0.022906411371413  0.0000
  O2     O2        0.369674375166875    0.517395411563283    0.942587910265853  0.0000
  O3     O3        0.123943709376104    0.585195524095184    0.934971261184764  0.0000
  O2     O2        0.761320256211077    0.309129682907047    0.032875757753724  0.0000
  O3     O3        0.743148676127871    0.717895263824571    0.059479854298128  0.0000
  O3     O3        0.240527065620997    0.331461601316657    0.904914423162762  0.0000
  O2     O2        0.258276439426685    0.753281016421791    0.926891391778625  0.0000
