data_c00951.vasp
_audit_creation_method             Generated by GULP
_audit_author_name                 Salvador R. G. Balestra
_symmetry_space_group_name_H-M     'P 1             '
_symmetry_Int_Tables_number        1

loop_
_symmetry_equiv_pos_site_id
_symmetry_equiv_pos_as_xyz
_cell_length_a                       16.9893
_cell_length_b                        7.6212
_cell_length_c                       10.3240
_cell_angle_alpha                   92.5072
_cell_angle_beta                    90.2249
_cell_angle_gamma                   90.2812

loop_
_atom_site_label
_atom_site_type_symbol
_atom_site_fract_x
_atom_site_fract_y
_atom_site_fract_z
_atom_site_charge
  Ge     Ge        0.556730000000016    0.000000000000000    0.122129999999970  0.0000
  Ge     Ge        0.143492271791099    0.327085093753806    0.284047231743902  0.0000
  Ge     Ge        0.335812844149838    0.284788203737101    0.293250867873758  0.0000
  Ge     Ge        0.335746385585797    0.252110514308541    0.985498398889338  0.0000
  Si     Si        0.043452343404431    0.018499081293643    0.366120552459765  0.0000
  Si     Si        0.452637753267643    0.999622753988855    0.371471939286203  0.0000
  Si     Si        0.949563886652253    0.976905994716566    0.623688146790591  0.0000
  Si     Si        0.547607213310803    0.954351889444427    0.630145676922307  0.0000
  Si     Si        0.943420416504853    0.008100991370082    0.110409764928342  0.0000
  Si     Si        0.441704599967612    0.964390849741364    0.882405307045786  0.0000
  Si     Si        0.057957768856192    0.980678012765185    0.874193551754895  0.0000
  Si     Si        0.344370595422343    0.683362982768544    0.272290747013891  0.0000
  Si     Si        0.845398550383592    0.287586015433474    0.708910724505769  0.0000
  Si     Si        0.653087325081141    0.658832043526749    0.712575966240236  0.0000
  Si     Si        0.834363079473997    0.689737892671285    0.708104270333963  0.0000
  Si     Si        0.663719248877216    0.253787535026801    0.715349262254975  0.0000
  Si     Si        0.166544855405443    0.736993311456358    0.267679323204428  0.0000
  Si     Si        0.670564901765106    0.277108128693897    0.015792181557003  0.0000
  Si     Si        0.833086783026701    0.713574121046540    0.011022721283868  0.0000
  Si     Si        0.169571262325953    0.695898406477620    0.961435747048562  0.0000
  Si     Si        0.347114787802346    0.642275014320193    0.964206995625507  0.0000
  Si     Si        0.146207591931208    0.300948485718620    0.985458167698575  0.0000
  Si     Si        0.650703476982518    0.674422379177117    0.013562778193418  0.0000
  Si     Si        0.852426438776921    0.319321476108335    0.010632493150684  0.0000
  O3     O3        0.078088796178643    0.213428069963553    0.378497011151837  0.0000
  O2     O2        0.410964458795470    0.825368396814566    0.306852598686234  0.0000
  O2     O2        0.903258175218071    0.161500846895191    0.625916877449114  0.0000
  O2     O2        0.595414917476677    0.771660958917939    0.625569772841632  0.0000
  O2     O2        0.886308288898292    0.818061755105552    0.623603572441635  0.0000
  O2     O2        0.608906277328677    0.117662394441898    0.632711475210638  0.0000
  O2     O2        0.118051925349804    0.892933911862329    0.336823852229459  0.0000
  O3     O3        0.390580413460922    0.153380743644122    0.393273111196737  0.0000
  O2     O2        0.000826889638095    0.959982646718286    0.495018706414943  0.0000
  O2     O2        0.492331035859878    0.953940374647347    0.506200997644719  0.0000
  O2     O2        0.979990280276700    0.996837445693640    0.251279086566725  0.0000
  O3     O3        0.521548816488739    0.046560277486435    0.273976384973959  0.0000
  O2     O2        0.008432664888107    0.964215659221063    0.743692606594859  0.0000
  O2     O2        0.490587490565730    0.964888278181452    0.752358894140739  0.0000
  O3     O3        0.634601421391556    0.144460993553014    0.111182997216576  0.0000
  O2     O2        0.872912795088669    0.866428400469213    0.099260775598384  0.0000
  O3     O3        0.365988032991894    0.087459963657412    0.877566564125858  0.0000
  O2     O2        0.122151412808650    0.825302859852805    0.871493992273628  0.0000
  O2     O2        0.415600097387318    0.766164106873698    0.913173966257276  0.0000
  O2     O2        0.101392659376864    0.169672086994569    0.882755143385515  0.0000
  O3     O3        0.592060629739072    0.787948267107223    0.100893933884044  0.0000
  O2     O2        0.910452263263453    0.204361731730884    0.094649501735181  0.0000
  O3     O3        0.490945789463819    0.048190592634927    0.002686145458687  0.0000
  O2     O2        0.005016924668638    0.954761935860208    0.999415195159257  0.0000
  O3     O3        0.140710792150213    0.550889066930884    0.318765314294283  0.0000
  O3     O3        0.354245983139014    0.503472555251697    0.342608027608486  0.0000
  O2     O2        0.861451177003687    0.489585851076811    0.676414967702156  0.0000
  O2     O2        0.636085889906794    0.451616034554591    0.688207011813425  0.0000
  O1     O1        0.236821404428127    0.252423045921041    0.308632213822043  0.0000
  O2     O2        0.258960573322199    0.769888312153242    0.301558739459445  0.0000
  O2     O2        0.755187661977355    0.233552044584268    0.675535650201625  0.0000
  O2     O2        0.742293347485043    0.704845065100526    0.672826143529926  0.0000
  O3     O3        0.108262213430193    0.291892260755300    0.126520913019531  0.0000
  O2     O2        0.349160327258790    0.624501665558204    0.119940018701754  0.0000
  O2     O2        0.864555993533382    0.263255012300708    0.859770542678567  0.0000
  O2     O2        0.637163173986724    0.716083973282732    0.862500793509427  0.0000
  O2     O2        0.845399151543638    0.746431865764863    0.859189213281386  0.0000
  O2     O2        0.655253685113178    0.212192832001282    0.866171977372254  0.0000
  O2     O2        0.155025305192044    0.743666366515245    0.112721049071713  0.0000
  O1     O1        0.369703225041760    0.229397669610620    0.140303600105450  0.0000
  O2     O2        0.632820129207979    0.470461263120589    0.036192374013299  0.0000
  O2     O2        0.871840853043036    0.525068820655313    0.039502396705120  0.0000
  O3     O3        0.360214612427119    0.446061461466183    0.911482165970547  0.0000
  O2     O2        0.141906238650598    0.495786846136741    0.929354848344516  0.0000
  O2     O2        0.762856019320740    0.284881324923190    0.047731602647129  0.0000
  O2     O2        0.741543879306819    0.716721736729445    0.048020934553121  0.0000
  O3     O3        0.235603534842179    0.246767825551492    0.007364776328852  0.0000
  O2     O2        0.261580143601065    0.717874286735888    0.925843669297540  0.0000
