data_c00987.vasp
_audit_creation_method             Generated by GULP
_audit_author_name                 Salvador R. G. Balestra
_symmetry_space_group_name_H-M     'P 1             '
_symmetry_Int_Tables_number        1

loop_
_symmetry_equiv_pos_site_id
_symmetry_equiv_pos_as_xyz
_cell_length_a                       17.0270
_cell_length_b                        7.6289
_cell_length_c                       10.3464
_cell_angle_alpha                   87.4431
_cell_angle_beta                    89.6474
_cell_angle_gamma                   90.2236

loop_
_atom_site_label
_atom_site_type_symbol
_atom_site_fract_x
_atom_site_fract_y
_atom_site_fract_z
_atom_site_charge
  Ge     Ge        0.556730000000016    0.000000000000000    0.122129999999970  0.0000
  Ge     Ge        0.344269148267333    0.688170668370656    0.281489306287786  0.0000
  Ge     Ge        0.853905132617030    0.358781264118762    0.700732278798033  0.0000
  Ge     Ge        0.662413283437598    0.311685343637826    0.701283829322690  0.0000
  Si     Si        0.042949829447336    0.004385645896976    0.358783540654630  0.0000
  Si     Si        0.447698691272450    0.991225865802257    0.372436183190939  0.0000
  Si     Si        0.953409683865438    0.049463947333031    0.621281267284441  0.0000
  Si     Si        0.542908146248885    0.032874242459459    0.625419189111160  0.0000
  Si     Si        0.936666615627579    0.015539130914167    0.110484025109569  0.0000
  Si     Si        0.442400744143156    0.039309700902866    0.881587456623032  0.0000
  Si     Si        0.054457446190539    0.038429035780341    0.874588809043371  0.0000
  Si     Si        0.149153571924481    0.315257419843666    0.268005528258516  0.0000
  Si     Si        0.649208815121819    0.724392070821080    0.713239243151572  0.0000
  Si     Si        0.829908753443474    0.765748415876505    0.714990558924399  0.0000
  Si     Si        0.159258072512132    0.718220335347248    0.277256073265915  0.0000
  Si     Si        0.329713468069986    0.280246333885290    0.266788605418889  0.0000
  Si     Si        0.665777414331347    0.285566061048832    0.001150323087907  0.0000
  Si     Si        0.826757198042224    0.727000887153998    0.020904674539161  0.0000
  Si     Si        0.329813216711664    0.320634111909781    0.962981211635809  0.0000
  Si     Si        0.164706806330447    0.745585284612827    0.974263187547059  0.0000
  Si     Si        0.347235009420678    0.717477432324501    0.973449654043088  0.0000
  Si     Si        0.149144750866238    0.348942110156005    0.965935391531157  0.0000
  Si     Si        0.646337659532763    0.683016177862901    0.016612515201571  0.0000
  Si     Si        0.851473433184449    0.338071912733280    0.002063028116259  0.0000
  O2     O2        0.090126869796763    0.187829687544764    0.348257479588121  0.0000
  O3     O3        0.411331601291947    0.797819127495192    0.371340662459766  0.0000
  O3     O3        0.920916908628718    0.245314033412278    0.609993870245044  0.0000
  O2     O2        0.589553312185198    0.849270742330512    0.634047831311375  0.0000
  O2     O2        0.877108730332836    0.926559404867967    0.647761735183708  0.0000
  O3     O3        0.605513118280263    0.187509800931176    0.602220298686880  0.0000
  O2     O2        0.102735127103756    0.841418127866557    0.357523524983982  0.0000
  O2     O2        0.376120604336252    0.122396301481976    0.336896759983254  0.0000
  O2     O2        0.996242395013545    0.992501508744771    0.492475377399540  0.0000
  O2     O2        0.479151338682727    0.030524929423847    0.513246939519384  0.0000
  O2     O2        0.980694069906736    0.992092603900932    0.244791529278408  0.0000
  O3     O3        0.520533881564228    0.016285146338631    0.275219545903172  0.0000
  O2     O2        0.015135709308740    0.022583814169780    0.736937299412849  0.0000
  O2     O2        0.496256332980475    0.064376494010359    0.756971513905655  0.0000
  O3     O3        0.637324413895994    0.139055847519637    0.104258801561261  0.0000
  O2     O2        0.870491665987050    0.864819993087166    0.107634521067354  0.0000
  O2     O2        0.374916906804892    0.188364357567272    0.873288858386343  0.0000
  O2     O2        0.123130177413974    0.894316953322409    0.886183252359131  0.0000
  O2     O2        0.403353996870949    0.845007046307553    0.886081358279282  0.0000
  O2     O2        0.090871264196242    0.233778787206217    0.882633475120461  0.0000
  O3     O3        0.585381239925205    0.785756274555814    0.101267627700486  0.0000
  O2     O2        0.895367881864084    0.205594787764937    0.102558976380163  0.0000
  O3     O3        0.489172445624021    0.072658703680387    0.010895611313719  0.0000
  O2     O2        0.994128618555731    0.993047186115160    0.990008619191541  0.0000
  O2     O2        0.132012809649599    0.515833744809850    0.300954545759310  0.0000
  O3     O3        0.361730184170125    0.466800453930142    0.306477018309169  0.0000
  O3     O3        0.859469616743757    0.581990162727012    0.665481610232189  0.0000
  O3     O3        0.638020704489226    0.529170262883643    0.671094339095465  0.0000
  O2     O2        0.237955414436537    0.265109023820464    0.306641083267600  0.0000
  O3     O3        0.248467895379765    0.735858417861467    0.321403976112112  0.0000
  O1     O1        0.760478201193002    0.288372765482257    0.672152387419612  0.0000
  O2     O2        0.738068064458002    0.789756127622666    0.681309793496376  0.0000
  O2     O2        0.136428287621048    0.289485706450983    0.115965603571346  0.0000
  O3     O3        0.364186091381292    0.751785184728480    0.122117096165832  0.0000
  O3     O3        0.885014923718685    0.319258671498942    0.859224399450232  0.0000
  O2     O2        0.632793897709145    0.739882392205875    0.866320506564644  0.0000
  O2     O2        0.840086820212147    0.771435718339963    0.869389403439315  0.0000
  O3     O3        0.637737176071836    0.244198909677084    0.858334476796601  0.0000
  O2     O2        0.153149773087228    0.777374816370031    0.125900655295016  0.0000
  O2     O2        0.337969051839820    0.261650968832218    0.113183100961928  0.0000
  O2     O2        0.632456051022644    0.475395796725840    0.039798840969586  0.0000
  O2     O2        0.861876636656807    0.533464605491241    0.053839028391311  0.0000
  O2     O2        0.365728093865914    0.516385440370374    0.941546428339103  0.0000
  O2     O2        0.129372650369095    0.554726625562002    0.942582184353467  0.0000
  O2     O2        0.759650944655850    0.295501999378243    0.990569193339048  0.0000
  O2     O2        0.734893645262440    0.733974920459725    0.056750828308452  0.0000
  O2     O2        0.238672449814487    0.317201152524218    0.923345020467790  0.0000
  O2     O2        0.256593546764062    0.756038010041575    0.941131429517950  0.0000
