data_c00981.vasp
_audit_creation_method             Generated by GULP
_audit_author_name                 Salvador R. G. Balestra
_symmetry_space_group_name_H-M     'P 1             '
_symmetry_Int_Tables_number        1

loop_
_symmetry_equiv_pos_site_id
_symmetry_equiv_pos_as_xyz
_cell_length_a                       17.0418
_cell_length_b                        7.6438
_cell_length_c                       10.2724
_cell_angle_alpha                   90.7630
_cell_angle_beta                    90.8947
_cell_angle_gamma                   89.5018

loop_
_atom_site_label
_atom_site_type_symbol
_atom_site_fract_x
_atom_site_fract_y
_atom_site_fract_z
_atom_site_charge
  Ge     Ge        0.556730000000016    0.000000000000000    0.122129999999970  0.0000
  Ge     Ge        0.165052857476852    0.278726146722735    0.288999235314974  0.0000
  Ge     Ge        0.331101902645857    0.697309695272840    0.966172660027856  0.0000
  Ge     Ge        0.829775537413775    0.267950427945121    0.024843070018112  0.0000
  Si     Si        0.050921422890116    0.988861538373386    0.371434814175891  0.0000
  Si     Si        0.454948681587758    0.997318329702632    0.376142747374342  0.0000
  Si     Si        0.948163365521090    0.975582525980360    0.623685161548827  0.0000
  Si     Si        0.551661888999825    0.001946713550135    0.637414362233238  0.0000
  Si     Si        0.943678094786424    0.985164325645487    0.117583916828785  0.0000
  Si     Si        0.441971327198530    0.979834906890773    0.881525340339055  0.0000
  Si     Si        0.050926239579173    0.987535895435215    0.878546420496779  0.0000
  Si     Si        0.339493717297619    0.707564343856622    0.275768278559699  0.0000
  Si     Si        0.833876401461864    0.268982552191357    0.714504170643003  0.0000
  Si     Si        0.667119197368355    0.710490646505463    0.715268047714633  0.0000
  Si     Si        0.848265671773564    0.671971820079492    0.717646234856375  0.0000
  Si     Si        0.655070084836221    0.310794956263497    0.712536059681987  0.0000
  Si     Si        0.159148858031645    0.687164871884611    0.284650880557379  0.0000
  Si     Si        0.349325293166384    0.301751321948708    0.280669102877923  0.0000
  Si     Si        0.647677545123086    0.321454561245923    0.018898192702894  0.0000
  Si     Si        0.854833848115058    0.665876382542202    0.019131690008392  0.0000
  Si     Si        0.344532809001453    0.294946782998733    0.976997112926009  0.0000
  Si     Si        0.148105638652933    0.672567513010780    0.978853082785633  0.0000
  Si     Si        0.162000299779020    0.272704514109832    0.980065706342899  0.0000
  Si     Si        0.672041643997520    0.714294538683620    0.017988728592490  0.0000
  O3     O3        0.107771816205895    0.153126138200477    0.386013425105799  0.0000
  O2     O2        0.393409276049213    0.839568812685946    0.359274499352621  0.0000
  O2     O2        0.885656734873706    0.134863805594269    0.629295205015580  0.0000
  O2     O2        0.616514375166773    0.846330386308166    0.629650136863394  0.0000
  O2     O2        0.904588239851381    0.789525235362429    0.631828287144921  0.0000
  O2     O2        0.594799587705591    0.188922476174997    0.631715629924298  0.0000
  O2     O2        0.105319579783907    0.815933540293498    0.369395703832763  0.0000
  O2     O2        0.412453524420660    0.185616047195239    0.359155741737709  0.0000
  O2     O2        0.989679359084547    0.980223320338100    0.486180944786512  0.0000
  O2     O2        0.489610650630043    0.985911831037495    0.521096203032388  0.0000
  O2     O2        0.002979511301057    0.004806646208323    0.236912181199043  0.0000
  O3     O3        0.526499442105335    0.980216154038210    0.279014380516807  0.0000
  O2     O2        0.014437329635586    0.995271956594955    0.734995154500382  0.0000
  O2     O2        0.505254636565335    0.986342803774376    0.770318192342704  0.0000
  O3     O3        0.581808403003902    0.213634567747063    0.089312925759775  0.0000
  O2     O2        0.910409295020312    0.788018226579178    0.108614932111264  0.0000
  O2     O2        0.397821807002418    0.166972481816990    0.890968571110512  0.0000
  O2     O2        0.084498616849868    0.792360048292327    0.903961600688616  0.0000
  O3     O3        0.377669811498804    0.831228836944593    0.859693397221349  0.0000
  O2     O2        0.118922509572273    0.132891844538211    0.886147628892225  0.0000
  O3     O3        0.637948951500481    0.864774160198047    0.107469480933310  0.0000
  O3     O3        0.872433203177091    0.119925469546551    0.128750872169292  0.0000
  O3     O3        0.484587611009638    0.929851643795777    0.016559687052561  0.0000
  O2     O2        0.986243658378677    0.039119525135759    0.984520911812419  0.0000
  O3     O3        0.134971312020516    0.491854060143004    0.313100803644201  0.0000
  O2     O2        0.369280950538362    0.507761194490994    0.295485965895847  0.0000
  O2     O2        0.865700780549712    0.466062148269351    0.695041554651949  0.0000
  O2     O2        0.635465740988435    0.514592903237061    0.686363736201726  0.0000
  O3     O3        0.263316402120968    0.263459615260920    0.331366014630428  0.0000
  O2     O2        0.249925609385262    0.721444256257690    0.324514719476138  0.0000
  O2     O2        0.743030119951848    0.264359898360397    0.666571946478172  0.0000
  O2     O2        0.758516012757424    0.718243167078574    0.678106117425071  0.0000
  O3     O3        0.154375612374761    0.214548264073430    0.128155664903770  0.0000
  O3     O3        0.342288314155677    0.762752741765821    0.126704450082261  0.0000
  O3     O3        0.837678875102842    0.210237805502246    0.862834953962095  0.0000
  O2     O2        0.658956230087982    0.764380820080020    0.866612532560368  0.0000
  O2     O2        0.865686015349666    0.719262407543419    0.868593609138090  0.0000
  O2     O2        0.647902559458169    0.272181570772610    0.865218778229836  0.0000
  O2     O2        0.148639987845279    0.726020548878350    0.131157301896996  0.0000
  O2     O2        0.355935594747454    0.246512510636900    0.128815297665000  0.0000
  O2     O2        0.630111576503044    0.528125537131485    0.040758740142557  0.0000
  O3     O3        0.876396516956381    0.467321366231033    0.044667551171128  0.0000
  O3     O3        0.370178750204004    0.489656379305638    0.949827914917540  0.0000
  O2     O2        0.125257047740165    0.467703782104615    0.962434134176427  0.0000
  O3     O3        0.733691541487273    0.275098975082555    0.073364864985955  0.0000
  O2     O2        0.763664227500485    0.693419217629796    0.053035428526553  0.0000
  O2     O2        0.252829830976289    0.274892791129112    0.939558376130219  0.0000
  O3     O3        0.233220133233209    0.702189125748558    0.922089113655514  0.0000
