data_c00918.vasp
_audit_creation_method             Generated by GULP
_audit_author_name                 Salvador R. G. Balestra
_symmetry_space_group_name_H-M     'P 1             '
_symmetry_Int_Tables_number        1

loop_
_symmetry_equiv_pos_site_id
_symmetry_equiv_pos_as_xyz
_cell_length_a                       17.0931
_cell_length_b                        7.6206
_cell_length_c                       10.2477
_cell_angle_alpha                   91.5873
_cell_angle_beta                    90.1287
_cell_angle_gamma                   89.3690

loop_
_atom_site_label
_atom_site_type_symbol
_atom_site_fract_x
_atom_site_fract_y
_atom_site_fract_z
_atom_site_charge
  Ge     Ge        0.556730000000016    0.000000000000000    0.122129999999970  0.0000
  Ge     Ge        0.160368978953838    0.261546819918559    0.262472579879773  0.0000
  Ge     Ge        0.664681351093929    0.693053719712971    0.693844249782370  0.0000
  Ge     Ge        0.648696596879716    0.319888940529713    0.014219179403355  0.0000
  Si     Si        0.043723905225032    0.978428803037258    0.346625928703422  0.0000
  Si     Si        0.446453846083179    0.984535232641563    0.364752169762091  0.0000
  Si     Si        0.947107077339674    0.949279105765968    0.604450971918972  0.0000
  Si     Si        0.544356069809696    0.975793656247359    0.619464150183521  0.0000
  Si     Si        0.944909855008261    0.978418558292585    0.085935263576452  0.0000
  Si     Si        0.444672144519841    0.962406822578636    0.876112396117525  0.0000
  Si     Si        0.057532672372962    0.965905435526623    0.846771175729752  0.0000
  Si     Si        0.332540251820529    0.693616625713585    0.260288042187009  0.0000
  Si     Si        0.829379150835325    0.244629899510932    0.703886965418119  0.0000
  Si     Si        0.847681962000538    0.644336427704647    0.691094479741271  0.0000
  Si     Si        0.649756211130576    0.279520076568060    0.706573891265803  0.0000
  Si     Si        0.151563184104413    0.673761680050800    0.258971365970266  0.0000
  Si     Si        0.344076649682813    0.289498352886289    0.263578676918620  0.0000
  Si     Si        0.851385448322086    0.658422442644954    0.996351945856124  0.0000
  Si     Si        0.345662324083771    0.281923102715126    0.957154089249528  0.0000
  Si     Si        0.152144527054499    0.656047695256969    0.954758170721398  0.0000
  Si     Si        0.332792924812984    0.679400750482276    0.955091288678254  0.0000
  Si     Si        0.164995229761863    0.253358341795051    0.952054513733804  0.0000
  Si     Si        0.671308495622592    0.723568212003844    0.000505933482601  0.0000
  Si     Si        0.830837878283772    0.268961077635356    0.011080020663687  0.0000
  O3     O3        0.103101333739914    0.138385002439729    0.360834315075701  0.0000
  O2     O2        0.382948345452178    0.831491549826830    0.344071794162495  0.0000
  O2     O2        0.879748295433459    0.095330770916717    0.629369335548252  0.0000
  O3     O3        0.606823606159956    0.820060188535886    0.595398943422423  0.0000
  O2     O2        0.909900985041193    0.755890056182883    0.610545698690028  0.0000
  O2     O2        0.590950777959314    0.158804434514309    0.621335565684053  0.0000
  O2     O2        0.095275191604495    0.800263962370413    0.344068602890583  0.0000
  O2     O2        0.407674660684175    0.174749154828429    0.339680682833395  0.0000
  O2     O2        0.981134650780410    0.974499464710799    0.461397068731891  0.0000
  O2     O2        0.476297519806621    0.980697489669611    0.512615751239621  0.0000
  O2     O2        0.997838361856935    0.002018078974974    0.211965641369667  0.0000
  O3     O3        0.521132500676825    0.956107844667071    0.273849363437625  0.0000
  O2     O2        0.018435162557006    0.970100750831561    0.705434971579194  0.0000
  O2     O2        0.503013832733286    0.939842118454678    0.756508494571982  0.0000
  O1     O1        0.583017402301254    0.214384036013527    0.108676094025720  0.0000
  O2     O2        0.908002746334836    0.784451480455083    0.080380683993168  0.0000
  O2     O2        0.404970715454023    0.156713151985814    0.875892938808139  0.0000
  O2     O2        0.096113543435834    0.773882624570701    0.866291560879256  0.0000
  O2     O2        0.377872711713846    0.813608229335716    0.865507177153871  0.0000
  O2     O2        0.122445944243804    0.117670500537549    0.853536008160501  0.0000
  O3     O3        0.640805494114391    0.875284638727815    0.096603961537896  0.0000
  O2     O2        0.877113671139065    0.125943080528909    0.093788268206690  0.0000
  O3     O3        0.489460163608867    0.928834608873374    0.008716724946138  0.0000
  O2     O2        0.993872503964388    0.011824949875785    0.956497356821819  0.0000
  O3     O3        0.131589300296530    0.476575342648746    0.287861820705220  0.0000
  O2     O2        0.360148976284301    0.495912538182429    0.291740709228608  0.0000
  O2     O2        0.863638069132606    0.435422017993826    0.670561337090643  0.0000
  O3     O3        0.630171233792113    0.481588069674267    0.686128651157833  0.0000
  O3     O3        0.257724888788974    0.241270353198083    0.306167814534918  0.0000
  O2     O2        0.241425899040761    0.716764883405175    0.297000479675256  0.0000
  O2     O2        0.738903560630308    0.235890536043194    0.658811371293448  0.0000
  O3     O3        0.761117217057160    0.690175509396101    0.643624863399493  0.0000
  O3     O3        0.151898359397482    0.199013283438891    0.099926602788847  0.0000
  O2     O2        0.343573325719077    0.730869356567126    0.107650806878872  0.0000
  O2     O2        0.830483957409661    0.212741502245832    0.858117748585312  0.0000
  O3     O3        0.662465180606127    0.778879110004793    0.851204996269522  0.0000
  O2     O2        0.859761734413389    0.697766061870190    0.843400209837348  0.0000
  O3     O3        0.639503676304640    0.234026023765794    0.857021678942704  0.0000
  O2     O2        0.138533430272092    0.711196569159752    0.105744927639189  0.0000
  O2     O2        0.356420196350592    0.244741499263599    0.110022913529327  0.0000
  O3     O3        0.626727814371812    0.540802864179863    0.019143003826806  0.0000
  O2     O2        0.874062790302371    0.457495526507022    0.026619700854300  0.0000
  O2     O2        0.366563146120014    0.482744562259897    0.927756367923668  0.0000
  O2     O2        0.132073287481683    0.451078526707295    0.932012526516426  0.0000
  O3     O3        0.743878075840918    0.281895670409688    0.065061076564058  0.0000
  O2     O2        0.761878148801233    0.688526142100217    0.036533783481478  0.0000
  O2     O2        0.256670943026609    0.244142010455079    0.916776178087640  0.0000
  O2     O2        0.241805641616555    0.688688773836551    0.916433540091367  0.0000
