data_c00978.vasp
_audit_creation_method             Generated by GULP
_audit_author_name                 Salvador R. G. Balestra
_symmetry_space_group_name_H-M     'P 1             '
_symmetry_Int_Tables_number        1

loop_
_symmetry_equiv_pos_site_id
_symmetry_equiv_pos_as_xyz
_cell_length_a                       17.0029
_cell_length_b                        7.6144
_cell_length_c                       10.2826
_cell_angle_alpha                   91.2192
_cell_angle_beta                    91.1870
_cell_angle_gamma                   89.8180

loop_
_atom_site_label
_atom_site_type_symbol
_atom_site_fract_x
_atom_site_fract_y
_atom_site_fract_z
_atom_site_charge
  Ge     Ge        0.556730000000016    0.000000000000000    0.122129999999970  0.0000
  Ge     Ge        0.163158458185656    0.265887776093829    0.281422526283605  0.0000
  Ge     Ge        0.141858529983804    0.655635777863609    0.965530649857637  0.0000
  Ge     Ge        0.827172947084414    0.262486030322141    0.014400729975277  0.0000
  Si     Si        0.046862992864547    0.981609529107458    0.365056967782681  0.0000
  Si     Si        0.450623758343992    0.996956165478314    0.368465230176995  0.0000
  Si     Si        0.940406226919240    0.972423447754518    0.611956670310124  0.0000
  Si     Si        0.542441163248698    0.990379982478368    0.634051658107421  0.0000
  Si     Si        0.942751394151837    0.982138746934821    0.107966656855696  0.0000
  Si     Si        0.438246806023317    0.969009700406450    0.884228367395520  0.0000
  Si     Si        0.045866552046018    0.972033591436037    0.863757801473101  0.0000
  Si     Si        0.332004633111335    0.704793418262711    0.263782528858133  0.0000
  Si     Si        0.825571781348658    0.261503402248056    0.704635706137257  0.0000
  Si     Si        0.660878994002882    0.705748698826952    0.711286521544541  0.0000
  Si     Si        0.842276660826464    0.666408437037354    0.708303166389642  0.0000
  Si     Si        0.646390295397535    0.303856387766904    0.710904105177799  0.0000
  Si     Si        0.151195430097129    0.679812272570530    0.272870903063241  0.0000
  Si     Si        0.347077785797291    0.303127705287311    0.276898108006212  0.0000
  Si     Si        0.645006942653830    0.321746737455539    0.016855256271795  0.0000
  Si     Si        0.853080547938914    0.661827875421847    0.009112306972722  0.0000
  Si     Si        0.341495937913161    0.288555486339541    0.972461963493567  0.0000
  Si     Si        0.325451100698504    0.682972895758042    0.957747325105307  0.0000
  Si     Si        0.159995848905167    0.246942776858619    0.974077655638303  0.0000
  Si     Si        0.670378689955005    0.715392256443849    0.013409702143963  0.0000
  O3     O3        0.107347849146554    0.141386152219988    0.381905479868113  0.0000
  O2     O2        0.385080844472885    0.849233220243938    0.337545134803286  0.0000
  O2     O2        0.875416072372759    0.127129079681189    0.615854844078688  0.0000
  O2     O2        0.609844970677212    0.840051616297622    0.625432308680876  0.0000
  O2     O2        0.898793837873220    0.782671186686967    0.621576389169550  0.0000
  O2     O2        0.583434576863726    0.181620865931509    0.633829585518062  0.0000
  O2     O2        0.096914644602214    0.801488425421394    0.364446952867042  0.0000
  O2     O2        0.412191310634570    0.190174912627029    0.353954987907364  0.0000
  O2     O2        0.982866579357889    0.977642107039740    0.475667878711338  0.0000
  O2     O2        0.481642414903160    0.973490751758159    0.514759608361195  0.0000
  O2     O2        0.001061808798649    0.007619774823443    0.228911113447966  0.0000
  O3     O3        0.524941373857502    0.978005452687161    0.277420456410385  0.0000
  O2     O2        0.005954314914612    0.003431078631550    0.724243201764935  0.0000
  O2     O2        0.494331073950714    0.961799409028316    0.763090089041313  0.0000
  O3     O3        0.580734871590383    0.215508767371814    0.092320573164341  0.0000
  O2     O2        0.910789213389115    0.782281143882705    0.098531260448541  0.0000
  O2     O2        0.397767273064350    0.161095746927042    0.890648629098720  0.0000
  O3     O3        0.073740685538600    0.771880540364799    0.875607374013017  0.0000
  O2     O2        0.372226149368206    0.817605307418129    0.870098850890695  0.0000
  O2     O2        0.121857087926413    0.098237564623354    0.879264104514613  0.0000
  O3     O3        0.638877482198646    0.867809675353393    0.104726179176427  0.0000
  O3     O3        0.870414733150359    0.114531737993240    0.116893926023381  0.0000
  O3     O3        0.485727805125897    0.925821503818572    0.014637398631786  0.0000
  O2     O2        0.986269221416297    0.032360811086367    0.975907406958277  0.0000
  O3     O3        0.130007863758678    0.479326104801098    0.292868953052245  0.0000
  O2     O2        0.365632925432855    0.510764366217910    0.294339340155852  0.0000
  O2     O2        0.857983433033277    0.459090033996017    0.685283504162839  0.0000
  O2     O2        0.628113037872463    0.508624218603509    0.685353019088739  0.0000
  O3     O3        0.261375230120818    0.261267843734681    0.327896916589459  0.0000
  O2     O2        0.242663155848245    0.717212366102966    0.312741205187692  0.0000
  O2     O2        0.733579196080586    0.256000062236834    0.661394568530150  0.0000
  O2     O2        0.752037609610942    0.712962786745389    0.671430362950751  0.0000
  O3     O3        0.155368432785209    0.189520865895336    0.122735549591038  0.0000
  O2     O2        0.330117843731953    0.740159213713654    0.110115532465809  0.0000
  O3     O3        0.832251892793826    0.202072656178585    0.852380087827529  0.0000
  O2     O2        0.655503998191236    0.764247494459283    0.862481871060091  0.0000
  O2     O2        0.862586340535952    0.715508688940785    0.858586009817332  0.0000
  O2     O2        0.641566838085077    0.266860451707737    0.863833754602810  0.0000
  O3     O3        0.136119075684882    0.731389473524921    0.124100892029595  0.0000
  O2     O2        0.353587608345262    0.248219602749099    0.124788178746388  0.0000
  O2     O2        0.627966054632234    0.529303273002171    0.037615290023558  0.0000
  O3     O3        0.875005761432601    0.462614174801768    0.031849225243305  0.0000
  O2     O2        0.363776927657288    0.488691661295229    0.941581525891064  0.0000
  O3     O3        0.118950657126786    0.434914018120596    0.956529477350957  0.0000
  O3     O3        0.732095143739176    0.275475391359390    0.067099584983466  0.0000
  O2     O2        0.762545725835910    0.692259225725133    0.045438671850549  0.0000
  O2     O2        0.250737616204775    0.259848707744557    0.932920153877460  0.0000
  O3     O3        0.235830162940682    0.683135192999592    0.909897002568099  0.0000
