data_c00941.vasp
_audit_creation_method             Generated by GULP
_audit_author_name                 Salvador R. G. Balestra
_symmetry_space_group_name_H-M     'P 1             '
_symmetry_Int_Tables_number        1

loop_
_symmetry_equiv_pos_site_id
_symmetry_equiv_pos_as_xyz
_cell_length_a                       17.1493
_cell_length_b                        7.6444
_cell_length_c                       10.2503
_cell_angle_alpha                   90.1983
_cell_angle_beta                    90.6757
_cell_angle_gamma                   89.7288

loop_
_atom_site_label
_atom_site_type_symbol
_atom_site_fract_x
_atom_site_fract_y
_atom_site_fract_z
_atom_site_charge
  Ge     Ge        0.556730000000016    0.000000000000000    0.122129999999970  0.0000
  Ge     Ge        0.162342842989497    0.279971508338833    0.276771179903883  0.0000
  Ge     Ge        0.653405134220859    0.312561540514561    0.702901077862043  0.0000
  Ge     Ge        0.331844607167617    0.702723016152353    0.958447594252565  0.0000
  Si     Si        0.045897491689810    0.992475665968926    0.354791141081714  0.0000
  Si     Si        0.448503153201398    0.999103626241396    0.371356220792279  0.0000
  Si     Si        0.949167948777543    0.987077940567347    0.613488912029553  0.0000
  Si     Si        0.547581827931390    0.008722566858552    0.626570044670829  0.0000
  Si     Si        0.943466308074693    0.993297422639024    0.097240236464832  0.0000
  Si     Si        0.443281277292153    0.989473454359756    0.877195255435917  0.0000
  Si     Si        0.055833495212295    0.984446455277803    0.861022045350715  0.0000
  Si     Si        0.333520582697153    0.711971818832224    0.268804730680205  0.0000
  Si     Si        0.835380479624834    0.284450603632323    0.703373264717363  0.0000
  Si     Si        0.664283802781504    0.723401694179827    0.712076041022093  0.0000
  Si     Si        0.845121066376630    0.685848782252587    0.709343685918441  0.0000
  Si     Si        0.154033625812622    0.688768758804460    0.268916128311540  0.0000
  Si     Si        0.345482643427136    0.305908923359705    0.275916666642152  0.0000
  Si     Si        0.651828354759606    0.314099148737255    0.011650092724890  0.0000
  Si     Si        0.850065770979150    0.676037669464608    0.012648358117103  0.0000
  Si     Si        0.345085698698534    0.300921620293249    0.971371138259649  0.0000
  Si     Si        0.149967418935929    0.669901590480627    0.962385640517416  0.0000
  Si     Si        0.163841460118536    0.271076050619178    0.967466514860031  0.0000
  Si     Si        0.669701806183808    0.714689013023910    0.014128424178815  0.0000
  Si     Si        0.831339108846269    0.282293080071942    0.011106568762288  0.0000
  O3     O3        0.105309791681614    0.151071552380379    0.372656535542983  0.0000
  O2     O2        0.385556537537520    0.845188938992057    0.353084610964100  0.0000
  O2     O2        0.892802114530104    0.154570327453029    0.627787219757838  0.0000
  O2     O2        0.615991739770483    0.861615838168262    0.625185172641998  0.0000
  O2     O2        0.900282024247516    0.809140137705270    0.625756443521188  0.0000
  O3     O3        0.588736640685575    0.193668789832228    0.608938398122534  0.0000
  O2     O2        0.096810481928575    0.815321988252987    0.347667450853103  0.0000
  O2     O2        0.407594959084024    0.189717438301589    0.356688405574536  0.0000
  O2     O2        0.985496287237026    0.985280716121005    0.471288556682663  0.0000
  O2     O2        0.482697383807942    0.977212548271987    0.516518846923057  0.0000
  O2     O2        0.997029661466069    0.021718084531171    0.222432294224764  0.0000
  O3     O3        0.520782449951569    0.983506584686861    0.276375928969296  0.0000
  O2     O2        0.019597551830380    0.995884766193061    0.717339395206992  0.0000
  O2     O2        0.505480001463299    0.999628868531863    0.764738877549924  0.0000
  O3     O3        0.593145806575874    0.207977363962967    0.100121750384015  0.0000
  O2     O2        0.907380462163347    0.797948683867070    0.098404622520659  0.0000
  O2     O2        0.399486557112726    0.175974170588713    0.886608680302336  0.0000
  O2     O2        0.089017739919441    0.788675285349939    0.881780557727811  0.0000
  O3     O3        0.379894470189607    0.839352953061187    0.854825496725749  0.0000
  O2     O2        0.123356808772447    0.130193735640695    0.872209475180003  0.0000
  O3     O3        0.630826355163325    0.847184688346416    0.111806717446832  0.0000
  O2     O2        0.874877082200172    0.137594889102522    0.097889816744387  0.0000
  O3     O3        0.485271697412102    0.942011440156324    0.012825372191091  0.0000
  O2     O2        0.991484375205619    0.029372546362147    0.967435259304335  0.0000
  O3     O3        0.131295181021337    0.492202383147023    0.298364574597355  0.0000
  O2     O2        0.363464023124535    0.512879770095865    0.291583751014817  0.0000
  O2     O2        0.863359840958176    0.483384122592684    0.677783014020053  0.0000
  O3     O3        0.632467252985490    0.531323975338942    0.684367715188493  0.0000
  O3     O3        0.259275798439321    0.265787256004463    0.323250207154327  0.0000
  O2     O2        0.243461405956507    0.725984712641773    0.313047950408203  0.0000
  O3     O3        0.747364723202709    0.266139184464414    0.653656534341317  0.0000
  O2     O2        0.755381952245819    0.729488422974885    0.673973843738828  0.0000
  O3     O3        0.154159081367262    0.213706717954073    0.116023536494581  0.0000
  O3     O3        0.339476330139117    0.767309809287650    0.119342036870914  0.0000
  O2     O2        0.836682614133946    0.240884491333490    0.857426770227123  0.0000
  O2     O2        0.656316977602451    0.775842880663986    0.864459103560086  0.0000
  O2     O2        0.862521199924233    0.723963622824271    0.861443529325948  0.0000
  O3     O3        0.640400008331428    0.252672664936485    0.863205496596629  0.0000
  O2     O2        0.146959592799878    0.725306254177830    0.114152520643296  0.0000
  O2     O2        0.354688755516624    0.252902623266866    0.124142322814954  0.0000
  O2     O2        0.633780725170960    0.520540271912596    0.026714184743396  0.0000
  O2     O2        0.869654321482972    0.472489830426966    0.039825530797239  0.0000
  O3     O3        0.371307631173767    0.495841212313859    0.944474229070520  0.0000
  O2     O2        0.127135321171119    0.465258248125433    0.946920081942882  0.0000
  O2     O2        0.741688030040112    0.278905397704938    0.054040336898987  0.0000
  O2     O2        0.761146769885490    0.712015918471304    0.049927829857450  0.0000
  O2     O2        0.254784421436051    0.276763638589869    0.930803056803013  0.0000
  O3     O3        0.235570086956757    0.701117188823775    0.909535857393234  0.0000
