data_c00991.vasp
_audit_creation_method             Generated by GULP
_audit_author_name                 Salvador R. G. Balestra
_symmetry_space_group_name_H-M     'P 1             '
_symmetry_Int_Tables_number        1

loop_
_symmetry_equiv_pos_site_id
_symmetry_equiv_pos_as_xyz
_cell_length_a                       17.0455
_cell_length_b                        7.6029
_cell_length_c                       10.3427
_cell_angle_alpha                   88.3617
_cell_angle_beta                    90.3340
_cell_angle_gamma                   90.0485

loop_
_atom_site_label
_atom_site_type_symbol
_atom_site_fract_x
_atom_site_fract_y
_atom_site_fract_z
_atom_site_charge
  Ge     Ge        0.556730000000016    0.000000000000000    0.122129999999970  0.0000
  Ge     Ge        0.351525950570425    0.684786895070779    0.289835013941439  0.0000
  Ge     Ge        0.855984283113655    0.341565551753767    0.714558134234366  0.0000
  Ge     Ge        0.331169363878183    0.297634978625203    0.970163081956547  0.0000
  Si     Si        0.050388800771662    0.002702485262323    0.372423410002049  0.0000
  Si     Si        0.455154547896514    0.990017004553719    0.380742903425718  0.0000
  Si     Si        0.958373811440479    0.032875920125790    0.634183471843680  0.0000
  Si     Si        0.553813739043045    0.015570721170306    0.635597770755991  0.0000
  Si     Si        0.942759156497930    0.009392761457518    0.125244049900490  0.0000
  Si     Si        0.443879811019694    0.019089186924608    0.880538748946692  0.0000
  Si     Si        0.057259783000041    0.024523991847298    0.891755874606373  0.0000
  Si     Si        0.155426853886107    0.313745267641574    0.281140196313361  0.0000
  Si     Si        0.657172286623582    0.706483697499283    0.718522857509682  0.0000
  Si     Si        0.837423426470725    0.750422581579673    0.725020989559910  0.0000
  Si     Si        0.671052781391389    0.301982348469099    0.712277768312281  0.0000
  Si     Si        0.167674439339626    0.715808124797356    0.291070053521728  0.0000
  Si     Si        0.334554344383346    0.269945848084908    0.276156702956496  0.0000
  Si     Si        0.673381597414834    0.284979145234498    0.013951779684001  0.0000
  Si     Si        0.831678325623179    0.727468389179765    0.027910852070187  0.0000
  Si     Si        0.170133385947139    0.736492521901181    0.988084831682598  0.0000
  Si     Si        0.352851020197597    0.701617426462303    0.985543707291211  0.0000
  Si     Si        0.149154438265960    0.342784472887442    0.977390834186483  0.0000
  Si     Si        0.651149764935489    0.682999727585426    0.019165270072326  0.0000
  Si     Si        0.855012760766021    0.330836664788494    0.021315397617983  0.0000
  O2     O2        0.095354687537510    0.188609361984254    0.358672681441649  0.0000
  O3     O3        0.419161748531862    0.795105671703177    0.381153693018502  0.0000
  O3     O3        0.923477013546934    0.227594162910677    0.626440791342362  0.0000
  O2     O2        0.599632043668988    0.829767031868739    0.632116744245815  0.0000
  O2     O2        0.883164495136046    0.904524241470193    0.648774877081831  0.0000
  O2     O2        0.616145213691547    0.175586077245085    0.628611627491702  0.0000
  O2     O2        0.112466504083482    0.843685278788331    0.370283027914458  0.0000
  O2     O2        0.382494581279819    0.123444356915315    0.357865152264974  0.0000
  O2     O2        0.006598354808256    0.990152272405835    0.507679984437735  0.0000
  O2     O2        0.494217539847877    0.031490757111115    0.517287583522587  0.0000
  O2     O2        0.985911388639240    0.982905802997983    0.261038386163065  0.0000
  O3     O3        0.522492823361929    0.016778535654346    0.275634542614535  0.0000
  O2     O2        0.016625878517267    0.000877350727975    0.754884495212609  0.0000
  O2     O2        0.504236632327160    0.026886937350305    0.764999695162159  0.0000
  O3     O3        0.636137488726803    0.139015140636896    0.105283368824606  0.0000
  O2     O2        0.872622879118444    0.867382393961731    0.119544144829523  0.0000
  O3     O3        0.375753705608848    0.162237267285600    0.862988098716843  0.0000
  O2     O2        0.131492336252275    0.892947288734145    0.902674290449530  0.0000
  O2     O2        0.406128891556748    0.824252535410789    0.892321041096931  0.0000
  O2     O2        0.085381879270699    0.227000237654321    0.902090503909132  0.0000
  O3     O3        0.588369115230948    0.786438150636405    0.099852503299442  0.0000
  O2     O2        0.909337747935044    0.207963261377012    0.114453931427545  0.0000
  O3     O3        0.487161153970518    0.069951511761969    0.012583786665979  0.0000
  O2     O2        0.000327540603291    0.968642093863527    0.008091247651083  0.0000
  O2     O2        0.136525248751772    0.515899626305374    0.311584833495590  0.0000
  O3     O3        0.370025086000777    0.462019147868280    0.296978492944156  0.0000
  O3     O3        0.872815444026604    0.563381896763800    0.691484743462415  0.0000
  O2     O2        0.640876973586226    0.502657051502059    0.690112189208798  0.0000
  O2     O2        0.244244114505643    0.268941625134035    0.324856280316164  0.0000
  O3     O3        0.256812511946027    0.726166688958036    0.338732614709339  0.0000
  O3     O3        0.760802328378107    0.290995098176823    0.670401201295211  0.0000
  O2     O2        0.746361510640202    0.754818403633858    0.681420820591982  0.0000
  O2     O2        0.147146650104646    0.283163293234632    0.128388644009203  0.0000
  O3     O3        0.367256908689146    0.758357759341227    0.132033524350951  0.0000
  O3     O3        0.873691018957640    0.285054240930910    0.874973963689680  0.0000
  O2     O2        0.641828070345517    0.744263649993801    0.868798008603034  0.0000
  O2     O2        0.842068687035714    0.784333821806299    0.878042998565204  0.0000
  O2     O2        0.664187332510096    0.240738724721425    0.862724968020121  0.0000
  O2     O2        0.164996716293957    0.775281484703238    0.139952646880045  0.0000
  O3     O3        0.336268620994800    0.217774007822738    0.127566131850577  0.0000
  O2     O2        0.634076547614387    0.475287921992884    0.036860928012170  0.0000
  O2     O2        0.871408565674112    0.535485414970875    0.050417118379384  0.0000
  O3     O3        0.375688480644011    0.501784999277224    0.965415607321084  0.0000
  O2     O2        0.127896146042730    0.550070592190165    0.959815450291080  0.0000
  O2     O2        0.764588550291129    0.291699077855707    0.050262950179912  0.0000
  O2     O2        0.740092433730638    0.723525740005113    0.064725999404287  0.0000
  O3     O3        0.234560830746683    0.311256523470576    0.921726156594486  0.0000
  O2     O2        0.260904357467987    0.724969929416048    0.949418903394715  0.0000
