data_c00988.vasp
_audit_creation_method             Generated by GULP
_audit_author_name                 Salvador R. G. Balestra
_symmetry_space_group_name_H-M     'P 1             '
_symmetry_Int_Tables_number        1

loop_
_symmetry_equiv_pos_site_id
_symmetry_equiv_pos_as_xyz
_cell_length_a                       17.1086
_cell_length_b                        7.5973
_cell_length_c                       10.3041
_cell_angle_alpha                   89.0318
_cell_angle_beta                    89.5458
_cell_angle_gamma                   90.1585

loop_
_atom_site_label
_atom_site_type_symbol
_atom_site_fract_x
_atom_site_fract_y
_atom_site_fract_z
_atom_site_charge
  Ge     Ge        0.556730000000016    0.000000000000000    0.122129999999970  0.0000
  Ge     Ge        0.354283668439017    0.686573691663118    0.301438907658235  0.0000
  Ge     Ge        0.854257655902497    0.337072773493427    0.728014582946941  0.0000
  Ge     Ge        0.335757046241626    0.265680087222188    0.297101494695060  0.0000
  Si     Si        0.050192078286073    0.008338236382224    0.385187389735487  0.0000
  Si     Si        0.457271339414525    0.990877521373540    0.386785112078272  0.0000
  Si     Si        0.958434896733637    0.029233514789676    0.648876960116278  0.0000
  Si     Si        0.554603710443438    0.010927209573131    0.639873446990325  0.0000
  Si     Si        0.945483014943226    0.010621127386784    0.138479152531517  0.0000
  Si     Si        0.444855302732860    0.010646544936364    0.878980458573778  0.0000
  Si     Si        0.061071769817576    0.017062529903010    0.902250436194132  0.0000
  Si     Si        0.153112121090627    0.319244026868077    0.297314815252625  0.0000
  Si     Si        0.657507494715431    0.706123037601146    0.742925688035225  0.0000
  Si     Si        0.837256728814449    0.747050525047588    0.740071686616158  0.0000
  Si     Si        0.671297692315238    0.299602936602827    0.733585017551895  0.0000
  Si     Si        0.170018014662344    0.723927839346051    0.298357528798546  0.0000
  Si     Si        0.676347364498363    0.283953505942680    0.036715656065663  0.0000
  Si     Si        0.834282379579932    0.725975022120687    0.043958328241426  0.0000
  Si     Si        0.335233442407991    0.289730447307153    0.989384517365857  0.0000
  Si     Si        0.173183429395839    0.729024773263375    0.993504514482873  0.0000
  Si     Si        0.353212525013765    0.695320018522318    0.994437936703122  0.0000
  Si     Si        0.155619946613536    0.331951793150641    0.992816343878148  0.0000
  Si     Si        0.654225613385927    0.681451030438142    0.044075166247183  0.0000
  Si     Si        0.856182845537468    0.329270831615467    0.037303236186136  0.0000
  O2     O2        0.088991509469669    0.201857220906326    0.374080555016242  0.0000
  O3     O3        0.423600749942251    0.794541077610193    0.390808800335913  0.0000
  O3     O3        0.922853513106884    0.222879631929506    0.640174378213124  0.0000
  O2     O2        0.599086540397911    0.826129211382826    0.659493654504052  0.0000
  O2     O2        0.883644374153985    0.899815694122855    0.663408842225538  0.0000
  O2     O2        0.613575066996322    0.174110895577131    0.655366300000203  0.0000
  O2     O2        0.116448518051684    0.859243168774583    0.375770158746089  0.0000
  O3     O3        0.382154359369054    0.116701979042673    0.396039831541334  0.0000
  O2     O2        0.007837048353101    0.984075705797994    0.522284960474809  0.0000
  O2     O2        0.522587366568059    0.019670299951341    0.494494705968461  0.0000
  O2     O2        0.985587752815548    0.984019424640554    0.275909578186849  0.0000
  O3     O3        0.496256088719009    0.041843977379360    0.248748767167356  0.0000
  O2     O2        0.016013163283739    0.001244179062964    0.769203603772133  0.0000
  O2     O2        0.479698035468236    0.022033993999315    0.734207304930512  0.0000
  O3     O3        0.636190263741947    0.140727146537124    0.126705490833170  0.0000
  O2     O2        0.875647075876227    0.868575760359547    0.132878710509806  0.0000
  O2     O2        0.378219367357617    0.160268275713130    0.890375625039769  0.0000
  O2     O2        0.130580028679571    0.874262116786888    0.905386844895503  0.0000
  O2     O2        0.410280287213109    0.813856669800229    0.903657648162615  0.0000
  O2     O2        0.096661782593001    0.213838723978103    0.910738318072364  0.0000
  O3     O3        0.593139026348036    0.787230873110448    0.129273197974508  0.0000
  O2     O2        0.912504999047408    0.208894918010841    0.126083414653599  0.0000
  O3     O3        0.511953135773452    0.053985653603817    0.978912259705085  0.0000
  O2     O2        0.005636401467724    0.970072538775866    0.023372036325882  0.0000
  O2     O2        0.138784362136888    0.525278760795673    0.324533759490964  0.0000
  O1     O1        0.373164332829114    0.470058823467248    0.322656029612496  0.0000
  O3     O3        0.870799098958345    0.558818568209420    0.703595131725461  0.0000
  O2     O2        0.641867989816815    0.500977870206950    0.715473933841527  0.0000
  O3     O3        0.238474874263829    0.265748110167662    0.342623074141595  0.0000
  O3     O3        0.258858931574847    0.737541749443976    0.343918857966564  0.0000
  O3     O3        0.759662822504652    0.286643488027305    0.683314756542718  0.0000
  O2     O2        0.745974529965856    0.755778931317678    0.701630242019288  0.0000
  O2     O2        0.145466364042799    0.281924027887980    0.144162464421006  0.0000
  O3     O3        0.368553795270807    0.751952756673512    0.140533133543793  0.0000
  O3     O3        0.871020124249953    0.282476052548559    0.888737893446013  0.0000
  O2     O2        0.642724280855519    0.745591577056847    0.894417425631265  0.0000
  O2     O2        0.843780368196363    0.780745745384043    0.893493323248093  0.0000
  O2     O2        0.669943638812075    0.239679057401662    0.884378498089140  0.0000
  O2     O2        0.166672652928540    0.772621158781949    0.145393458130485  0.0000
  O3     O3        0.343822157456433    0.214815511603737    0.134401193861346  0.0000
  O2     O2        0.636825845010843    0.474432291203842    0.060215116715528  0.0000
  O2     O2        0.873897951833894    0.534432612859955    0.064929449778589  0.0000
  O2     O2        0.371729549237008    0.487381701516380    0.980569616972593  0.0000
  O2     O2        0.135722849126255    0.537094316280460    0.966979647652385  0.0000
  O2     O2        0.766782542269406    0.290277663809503    0.075337315131663  0.0000
  O2     O2        0.743388912558746    0.721252513792324    0.084708693778206  0.0000
  O2     O2        0.244465085593109    0.295684541799958    0.949632093525760  0.0000
  O2     O2        0.264011504481437    0.730489971982373    0.953220728739401  0.0000
