data_c00990.vasp
_audit_creation_method             Generated by GULP
_audit_author_name                 Salvador R. G. Balestra
_symmetry_space_group_name_H-M     'P 1             '
_symmetry_Int_Tables_number        1

loop_
_symmetry_equiv_pos_site_id
_symmetry_equiv_pos_as_xyz
_cell_length_a                       17.1388
_cell_length_b                        7.6289
_cell_length_c                       10.2090
_cell_angle_alpha                   88.7652
_cell_angle_beta                    90.4738
_cell_angle_gamma                   89.4861

loop_
_atom_site_label
_atom_site_type_symbol
_atom_site_fract_x
_atom_site_fract_y
_atom_site_fract_z
_atom_site_charge
  Ge     Ge        0.556730000000016    0.000000000000000    0.122129999999970  0.0000
  Ge     Ge        0.338575651994067    0.715955093707235    0.298492975077146  0.0000
  Ge     Ge        0.834797886779378    0.289597215054147    0.722766812025551  0.0000
  Ge     Ge        0.856328572123017    0.667925094549276    0.043867233524124  0.0000
  Si     Si        0.053222220644268    0.993029121816774    0.388647820378738  0.0000
  Si     Si        0.453180874815397    0.999281594624179    0.383574316025514  0.0000
  Si     Si        0.953234680926221    0.003707320475017    0.644008455490514  0.0000
  Si     Si        0.551219216077257    0.027050095439383    0.639295155554626  0.0000
  Si     Si        0.947358516859528    0.983711068197833    0.143476536417308  0.0000
  Si     Si        0.442983766760014    0.005820397776273    0.877660577149448  0.0000
  Si     Si        0.056790766960201    0.007694610423352    0.900972500825202  0.0000
  Si     Si        0.166754034119779    0.283953392928329    0.292373926010416  0.0000
  Si     Si        0.668728846105699    0.733322900039199    0.743707999337078  0.0000
  Si     Si        0.848321798808151    0.701590795362416    0.733852983351280  0.0000
  Si     Si        0.652617631916357    0.330026154328820    0.732186229268641  0.0000
  Si     Si        0.154930592838521    0.686867840586577    0.293614041329510  0.0000
  Si     Si        0.347468182576162    0.305296860167548    0.296705653437479  0.0000
  Si     Si        0.655519178780656    0.318956183239485    0.037699653118942  0.0000
  Si     Si        0.348083967414547    0.315925758054991    0.990941452801922  0.0000
  Si     Si        0.155362826689647    0.690974037048995    0.986399032823629  0.0000
  Si     Si        0.335805006724112    0.718795079357380    0.986511116375956  0.0000
  Si     Si        0.167955789792908    0.293091647584988    0.986080519798706  0.0000
  Si     Si        0.674661980208924    0.712612804820846    0.049963938081778  0.0000
  Si     Si        0.835188977661194    0.263567521870611    0.032734931070469  0.0000
  O2     O2        0.117089232983770    0.146150783194705    0.376337317510879  0.0000
  O3     O3        0.392796676428921    0.841807329849316    0.401734336263635  0.0000
  O3     O3        0.892223327512483    0.162233147121921    0.624981890321751  0.0000
  O2     O2        0.615849132448137    0.876350227640801    0.667103176305339  0.0000
  O2     O2        0.904167531585025    0.824464963993313    0.646325552988631  0.0000
  O2     O2        0.589190132311999    0.218817147891369    0.652315931429126  0.0000
  O2     O2        0.093276278752742    0.803284505860950    0.371640603221055  0.0000
  O2     O2        0.403636000997168    0.180159193907239    0.383398637276781  0.0000
  O2     O2        0.016759163024152    0.998612282789046    0.531132651906931  0.0000
  O2     O2        0.521228187775288    0.005977183890584    0.491364959446664  0.0000
  O2     O2        0.983983695404985    0.024002114282798    0.284058285790738  0.0000
  O3     O3        0.491708374448322    0.968653473321965    0.244019198154913  0.0000
  O2     O2        0.000512205235041    0.032242524378068    0.778055833590520  0.0000
  O2     O2        0.475629455685125    0.008980158038189    0.730691146974369  0.0000
  O3     O3        0.597687751642654    0.205753052955346    0.124414383703842  0.0000
  O3     O3        0.922317364629324    0.782866710312584    0.135945325154816  0.0000
  O2     O2        0.405856548734234    0.196478213949549    0.907951479513619  0.0000
  O2     O2        0.097872835228705    0.815753962813837    0.900566879121456  0.0000
  O2     O2        0.378700732921845    0.853128061390218    0.888810228239389  0.0000
  O2     O2        0.122314129466776    0.158369087058871    0.895996443699834  0.0000
  O3     O3        0.630423978977061    0.845854737858645    0.139931144274056  0.0000
  O2     O2        0.871309994146472    0.107840243841305    0.123471937424350  0.0000
  O3     O3        0.513477224331309    0.959673837692359    0.973856346887721  0.0000
  O2     O2        0.008981283444193    0.035103658437023    0.032367372546039  0.0000
  O2     O2        0.138309982330405    0.481260463467482    0.322114100757709  0.0000
  O3     O3        0.368256121367520    0.502154638253794    0.325572202392893  0.0000
  O3     O3        0.868216863114614    0.501126081217500    0.709084203559764  0.0000
  O2     O2        0.635571811298891    0.539004078533296    0.717066189323219  0.0000
  O2     O2        0.257598873627622    0.263856044104795    0.331956424192260  0.0000
  O3     O3        0.241273980244035    0.734668983347709    0.337449923443224  0.0000
  O3     O3        0.737533748562651    0.287536185830226    0.677347579453211  0.0000
  O2     O2        0.757799104357832    0.742991372904606    0.693704615915957  0.0000
  O2     O2        0.156941274191553    0.244110567684229    0.138935194300536  0.0000
  O3     O3        0.349879155311748    0.774069142105934    0.135034208744557  0.0000
  O3     O3        0.840342152374860    0.211529812389211    0.882165169700313  0.0000
  O2     O2        0.670414586629394    0.775868758039399    0.897303818825230  0.0000
  O3     O3        0.863100102611729    0.745159454082343    0.884609738485590  0.0000
  O2     O2        0.645621919129610    0.271386755533094    0.884636007270223  0.0000
  O2     O2        0.143606860314881    0.729959531319408    0.139131945064672  0.0000
  O2     O2        0.361451262813364    0.265572932491373    0.143385422010759  0.0000
  O2     O2        0.634740811693969    0.521538669273820    0.060909497333049  0.0000
  O3     O3        0.878526247404858    0.446892773471864    0.052857891302280  0.0000
  O2     O2        0.367859502460863    0.520485712768146    0.966760607423863  0.0000
  O2     O2        0.135148994319803    0.489540630181509    0.956488224003566  0.0000
  O2     O2        0.745552440197486    0.284142441328074    0.076894114692106  0.0000
  O3     O3        0.763127226169576    0.700462961839689    0.098754690460408  0.0000
  O2     O2        0.258915612605447    0.280673905870758    0.949649007801887  0.0000
  O2     O2        0.244472647340662    0.728472593053760    0.949741595847813  0.0000
