data_c00928.vasp
_audit_creation_method             Generated by GULP
_audit_author_name                 Salvador R. G. Balestra
_symmetry_space_group_name_H-M     'P 1             '
_symmetry_Int_Tables_number        1

loop_
_symmetry_equiv_pos_site_id
_symmetry_equiv_pos_as_xyz
_cell_length_a                       17.0928
_cell_length_b                        7.5943
_cell_length_c                       10.2649
_cell_angle_alpha                   91.7785
_cell_angle_beta                    90.3747
_cell_angle_gamma                   88.8780

loop_
_atom_site_label
_atom_site_type_symbol
_atom_site_fract_x
_atom_site_fract_y
_atom_site_fract_z
_atom_site_charge
  Ge     Ge        0.556730000000016    0.000000000000000    0.122129999999970  0.0000
  Ge     Ge        0.163796941699675    0.257799372886934    0.274220429139114  0.0000
  Ge     Ge        0.848783339790684    0.631122405282141    0.695061897918325  0.0000
  Ge     Ge        0.646950934888430    0.323871988880903    0.023879073095876  0.0000
  Si     Si        0.045577384423407    0.979764809430282    0.358264461205846  0.0000
  Si     Si        0.451909623241612    0.974027078272957    0.367832496491687  0.0000
  Si     Si        0.948522203063910    0.936952398639625    0.612279997658332  0.0000
  Si     Si        0.546134588775017    0.965241903861717    0.629201851501974  0.0000
  Si     Si        0.943992942840888    0.975966048121970    0.099765736818447  0.0000
  Si     Si        0.442184167488885    0.955572370857148    0.880545704935466  0.0000
  Si     Si        0.055078059740351    0.962257410951320    0.860513857690630  0.0000
  Si     Si        0.334564429873630    0.688147956071770    0.267998403225149  0.0000
  Si     Si        0.827853444137838    0.224853652189633    0.716419950378923  0.0000
  Si     Si        0.665618906102994    0.677889524822242    0.695853322714171  0.0000
  Si     Si        0.649071917831378    0.274197859841394    0.715034265522900  0.0000
  Si     Si        0.154019425816191    0.672267871090910    0.272488857376812  0.0000
  Si     Si        0.347289413493772    0.281139470196899    0.270558608392701  0.0000
  Si     Si        0.853816634893840    0.656042663732771    0.003775841523048  0.0000
  Si     Si        0.344260080740722    0.275788496004294    0.964771770476785  0.0000
  Si     Si        0.150960745850843    0.652158902852001    0.968505156153349  0.0000
  Si     Si        0.331200019652641    0.674394519091383    0.963235794911793  0.0000
  Si     Si        0.163642311644196    0.248307175684017    0.964602827538813  0.0000
  Si     Si        0.673109692282345    0.722029177432791    0.000411789868850  0.0000
  Si     Si        0.829065572011216    0.265546025385728    0.023246621371677  0.0000
  O3     O3        0.105775456262107    0.137434755521006    0.371771052843827  0.0000
  O2     O2        0.387283543257758    0.823853579338233    0.349210421043864  0.0000
  O2     O2        0.873803632638871    0.062665993968123    0.646886005817125  0.0000
  O2     O2        0.609773426214935    0.805480000306709    0.611736210521428  0.0000
  O3     O3        0.915632717076447    0.741688563964338    0.604489947107536  0.0000
  O2     O2        0.589609825714473    0.151765299428626    0.632347721089974  0.0000
  O2     O2        0.096902497655623    0.799059312599911    0.357366639044536  0.0000
  O2     O2        0.412812322116516    0.166400398354010    0.344057212831097  0.0000
  O2     O2        0.984010620195847    0.985397801526488    0.474478614133195  0.0000
  O2     O2        0.483525075790455    0.964503218017459    0.513806682779466  0.0000
  O2     O2        0.998247683894824    0.000185394132424    0.224548042033741  0.0000
  O3     O3        0.525040133389241    0.945433881028870    0.273541624508823  0.0000
  O2     O2        0.017125581664811    0.961699493278111    0.718465297770873  0.0000
  O2     O2        0.499033742444460    0.933317869658555    0.759834168285945  0.0000
  O1     O1        0.580048397514425    0.217236555247012    0.114138761172711  0.0000
  O2     O2        0.908366586605131    0.780500250261658    0.094537709498326  0.0000
  O2     O2        0.402103266044248    0.150552559731143    0.880047786014821  0.0000
  O2     O2        0.093114030840239    0.769094666433988    0.882029821608718  0.0000
  O2     O2        0.375495207993303    0.807184784070868    0.872496214342278  0.0000
  O2     O2        0.120084745165656    0.113277071778648    0.866756618829298  0.0000
  O3     O3        0.643537244900352    0.889422625737431    0.082272954366371  0.0000
  O2     O2        0.875210028193838    0.123476923245441    0.108732997631586  0.0000
  O3     O3        0.488274976767555    0.924592822385341    0.012454905801296  0.0000
  O2     O2        0.991473927700131    0.011882128914788    0.969517577909121  0.0000
  O3     O3        0.135866222044860    0.474257841304573    0.302079521160067  0.0000
  O2     O2        0.361784069951304    0.488744833292721    0.298119179178087  0.0000
  O3     O3        0.865829952246295    0.406839891631814    0.678949502648437  0.0000
  O2     O2        0.632436932270660    0.479685814396652    0.686589647098181  0.0000
  O3     O3        0.261520691183665    0.232450751411592    0.315157351112491  0.0000
  O2     O2        0.244111224518754    0.716197871824306    0.308671771680546  0.0000
  O2     O2        0.737383128785337    0.223185299682939    0.669836142012422  0.0000
  O3     O3        0.753856956959110    0.676270627334522    0.645409049260662  0.0000
  O3     O3        0.152690736213381    0.194109104042591    0.112445753917325  0.0000
  O2     O2        0.342955984862742    0.725937860179930    0.115397589214514  0.0000
  O2     O2        0.827219372618257    0.202942765359922    0.871771496622637  0.0000
  O2     O2        0.666667194315686    0.750365151573410    0.845308735953828  0.0000
  O3     O3        0.867557905222011    0.698575326065906    0.854368802928777  0.0000
  O3     O3        0.636549989962406    0.240586313768004    0.865880085811447  0.0000
  O2     O2        0.139711859067191    0.708391256019094    0.119630750084436  0.0000
  O2     O2        0.357678990412352    0.236528880150254    0.116677506685234  0.0000
  O3     O3        0.626549364072714    0.547112856137690    0.034006936039334  0.0000
  O2     O2        0.873960797944016    0.452392561431995    0.033874573387607  0.0000
  O2     O2        0.364882267764320    0.476649152669228    0.935679882545130  0.0000
  O2     O2        0.130248946278132    0.447148600504214    0.946395185502889  0.0000
  O3     O3        0.742057189403405    0.284604388633490    0.076222013098158  0.0000
  O2     O2        0.763314166932493    0.688751204831998    0.038220251454681  0.0000
  O2     O2        0.254854785027480    0.238985717565444    0.927174835201926  0.0000
  O2     O2        0.239789311075270    0.684376259122229    0.926367323676878  0.0000
