data_c00953.vasp
_audit_creation_method             Generated by GULP
_audit_author_name                 Salvador R. G. Balestra
_symmetry_space_group_name_H-M     'P 1             '
_symmetry_Int_Tables_number        1

loop_
_symmetry_equiv_pos_site_id
_symmetry_equiv_pos_as_xyz
_cell_length_a                       17.0474
_cell_length_b                        7.6023
_cell_length_c                       10.2749
_cell_angle_alpha                   91.7096
_cell_angle_beta                    89.2768
_cell_angle_gamma                   89.3977

loop_
_atom_site_label
_atom_site_type_symbol
_atom_site_fract_x
_atom_site_fract_y
_atom_site_fract_z
_atom_site_charge
  Ge     Ge        0.556730000000016    0.000000000000000    0.122129999999970  0.0000
  Ge     Ge        0.146625106041830    0.331125357437246    0.298540810988257  0.0000
  Ge     Ge        0.335508978755360    0.282361008733673    0.304259652795766  0.0000
  Ge     Ge        0.356221531751795    0.656479938472956    0.977771677450634  0.0000
  Si     Si        0.047901526809571    0.019024524000164    0.377192718747259  0.0000
  Si     Si        0.452437942319283    0.999516406738292    0.383440190686141  0.0000
  Si     Si        0.954485249961976    0.986370778880076    0.638352559927849  0.0000
  Si     Si        0.554885955194469    0.981736833456971    0.632776101229350  0.0000
  Si     Si        0.946943561343122    0.001677380164421    0.125619498862155  0.0000
  Si     Si        0.447495568899578    0.973629879903655    0.876132326031484  0.0000
  Si     Si        0.061892006729116    0.986100882760337    0.887697326370186  0.0000
  Si     Si        0.351219307642419    0.692648687385331    0.284730284318059  0.0000
  Si     Si        0.850373841710672    0.299411998330507    0.721848198801845  0.0000
  Si     Si        0.657334377404544    0.678467082178243    0.732737747397749  0.0000
  Si     Si        0.838173337372364    0.702821930333864    0.725363694134953  0.0000
  Si     Si        0.669961520156361    0.271374052991557    0.730408942113324  0.0000
  Si     Si        0.170035573700544    0.735662623706063    0.275868363806503  0.0000
  Si     Si        0.674401256752496    0.277534478437263    0.032695141132660  0.0000
  Si     Si        0.836488500425366    0.713095617182649    0.029398215358740  0.0000
  Si     Si        0.335617848911811    0.250809327902629    0.996302003881750  0.0000
  Si     Si        0.173788559971205    0.696874160112228    0.969646537256518  0.0000
  Si     Si        0.152970514692345    0.303812331233189    0.989750351667405  0.0000
  Si     Si        0.655227283176924    0.677452594081691    0.034730616124536  0.0000
  Si     Si        0.854797997369392    0.315960236037568    0.025726361629460  0.0000
  O3     O3        0.077589645704900    0.217269173681898    0.386285143826012  0.0000
  O2     O2        0.406518790660498    0.815416296397931    0.373563858616671  0.0000
  O2     O2        0.909426787981896    0.174574429100970    0.637399490992156  0.0000
  O2     O2        0.598683567565111    0.794479959030877    0.648874338848669  0.0000
  O2     O2        0.889956352589250    0.832759863176980    0.640811929693066  0.0000
  O2     O2        0.616849822770252    0.139692661796559    0.646064097468721  0.0000
  O2     O2        0.125585145005098    0.900048438845181    0.345940035054505  0.0000
  O3     O3        0.389290308750313    0.154644272267265    0.407732675893107  0.0000
  O2     O2        0.007445551680316    0.961366448688623    0.510125489547414  0.0000
  O2     O2        0.519663858840144    0.985657550164506    0.489817104933416  0.0000
  O2     O2        0.983803132368867    0.990184851575476    0.266138484421911  0.0000
  O3     O3        0.495418325789444    0.045703818510051    0.249369374499165  0.0000
  O2     O2        0.011483121417770    0.972684253196759    0.759329063854272  0.0000
  O2     O2        0.482216640864402    0.005795664272443    0.732811087436088  0.0000
  O3     O3        0.633770933366942    0.146247328643362    0.126820286158467  0.0000
  O2     O2        0.877467352613110    0.860435278481403    0.118056453966837  0.0000
  O2     O2        0.369521952172000    0.094745559180768    0.901660047123019  0.0000
  O2     O2        0.127885854731155    0.832921302435323    0.880873814423326  0.0000
  O3     O3        0.423848606037576    0.771156664288725    0.888447465486660  0.0000
  O2     O2        0.101868351607694    0.177295110645398    0.896289157267004  0.0000
  O3     O3        0.595897325332075    0.788956215057371    0.124715932617346  0.0000
  O2     O2        0.913981544340747    0.199098951824004    0.107582531234496  0.0000
  O3     O3        0.510252518599462    0.039137909791344    0.979357513589925  0.0000
  O2     O2        0.009888937632155    0.949653343929071    0.014527762039693  0.0000
  O3     O3        0.128510081768087    0.555373048973046    0.310181583110210  0.0000
  O3     O3        0.372882082822801    0.492440954071000    0.307821999086689  0.0000
  O2     O2        0.866265471454475    0.502863961286663    0.691840872424755  0.0000
  O2     O2        0.641385688498702    0.471485107980790    0.707408675953038  0.0000
  O1     O1        0.239196842448284    0.288904706886044    0.351700147739148  0.0000
  O2     O2        0.259838225253034    0.728743344273710    0.324446683246546  0.0000
  O2     O2        0.760978815453493    0.251012553103956    0.686540245893240  0.0000
  O2     O2        0.746463808063176    0.723326775250193    0.691656351396565  0.0000
  O3     O3        0.135041575222630    0.260814693877613    0.137973117737759  0.0000
  O3     O3        0.365756427724875    0.739212251740477    0.135196200753818  0.0000
  O2     O2        0.866750112731183    0.266537457301781    0.873255934868079  0.0000
  O2     O2        0.641192811471456    0.728891306642257    0.884453671376817  0.0000
  O2     O2        0.848696313351101    0.752811810311425    0.877442818048295  0.0000
  O2     O2        0.662639983025841    0.221428464455363    0.881067521867486  0.0000
  O2     O2        0.173473319297824    0.761533132250861    0.120748161784268  0.0000
  O3     O3        0.341471922550324    0.198417510120001    0.145691747261546  0.0000
  O2     O2        0.638008142742265    0.473130443480621    0.055073260266742  0.0000
  O2     O2        0.873378608551602    0.520701471586997    0.055927536829766  0.0000
  O3     O3        0.378955244041038    0.434588379598343    0.973787762510604  0.0000
  O2     O2        0.132078876633440    0.506306981833976    0.958993943621659  0.0000
  O2     O2        0.766050639137352    0.277205918134769    0.066902644185999  0.0000
  O2     O2        0.745169007512167    0.719190032588211    0.068557168090678  0.0000
  O2     O2        0.244963401026706    0.277004302370927    0.960244040772466  0.0000
  O3     O3        0.262694073292081    0.685818154272852    0.919942256001056  0.0000
