data_c00938.vasp
_audit_creation_method             Generated by GULP
_audit_author_name                 Salvador R. G. Balestra
_symmetry_space_group_name_H-M     'P 1             '
_symmetry_Int_Tables_number        1

loop_
_symmetry_equiv_pos_site_id
_symmetry_equiv_pos_as_xyz
_cell_length_a                       17.0484
_cell_length_b                        7.6356
_cell_length_c                       10.3023
_cell_angle_alpha                   90.0254
_cell_angle_beta                    90.0910
_cell_angle_gamma                   90.2725

loop_
_atom_site_label
_atom_site_type_symbol
_atom_site_fract_x
_atom_site_fract_y
_atom_site_fract_z
_atom_site_charge
  Ge     Ge        0.556730000000016    0.000000000000000    0.122129999999970  0.0000
  Ge     Ge        0.152420790840271    0.332141512819291    0.278902787765635  0.0000
  Ge     Ge        0.664134638799008    0.290801064074438    0.704827426854977  0.0000
  Ge     Ge        0.828109150277800    0.739178477847409    0.016096232492380  0.0000
  Si     Si        0.046770858417285    0.028294282626206    0.361566845848213  0.0000
  Si     Si        0.449426130601737    0.012815503724551    0.369721967939630  0.0000
  Si     Si        0.947066116649473    0.024574007671077    0.616905938287619  0.0000
  Si     Si        0.543110508091627    0.006118060038555    0.629284780044585  0.0000
  Si     Si        0.941946735694949    0.025556434863737    0.107083429066870  0.0000
  Si     Si        0.440609132823846    0.020653512355349    0.883315123132661  0.0000
  Si     Si        0.051891102471704    0.012630725575959    0.867626940142976  0.0000
  Si     Si        0.343404002319781    0.711191074199261    0.266219057605092  0.0000
  Si     Si        0.847866846514304    0.335898025635170    0.702715626191590  0.0000
  Si     Si        0.648979743693911    0.700055959969044    0.709939911103879  0.0000
  Si     Si        0.829173323527529    0.739320083768731    0.706891108430263  0.0000
  Si     Si        0.161758980712743    0.741488707262809    0.268373646392571  0.0000
  Si     Si        0.335982486321566    0.307935237479292    0.271368085920087  0.0000
  Si     Si        0.670655718004096    0.282574079956986    0.010307260904191  0.0000
  Si     Si        0.328898611951690    0.306796504203231    0.965841972949955  0.0000
  Si     Si        0.161988426771110    0.727327143011408    0.965565157058882  0.0000
  Si     Si        0.343633650378982    0.703658597705406    0.964212154345291  0.0000
  Si     Si        0.147847451676285    0.326709461943983    0.969997560596023  0.0000
  Si     Si        0.646307082873374    0.679905494596997    0.013273313153715  0.0000
  Si     Si        0.851791816004799    0.340815316042389    0.005764866484399  0.0000
  O3     O3        0.089090656964570    0.213884571735971    0.374393595557184  0.0000
  O2     O2        0.400685003553358    0.834473573000917    0.347650452047111  0.0000
  O2     O2        0.909649945064792    0.219068095414073    0.622006180518635  0.0000
  O2     O2        0.588409437930099    0.820971034650631    0.631746732576955  0.0000
  O2     O2        0.878722807702832    0.878497303667634    0.623430356214473  0.0000
  O3     O3        0.607482696904802    0.156288419738056    0.609474862156120  0.0000
  O2     O2        0.115259617093243    0.883123801895646    0.352404572131268  0.0000
  O2     O2        0.394952338205746    0.181822020198674    0.347051219446939  0.0000
  O2     O2        0.990746018188613    0.994142730438102    0.482248256081291  0.0000
  O2     O2        0.478389563816511    0.009774778259389    0.517339255178681  0.0000
  O2     O2        0.994901014106357    0.018487070073109    0.232841846059237  0.0000
  O3     O3        0.524709810336172    0.019425367094583    0.278828602506419  0.0000
  O2     O2        0.011012706595725    0.000234800593161    0.729144825414748  0.0000
  O2     O2        0.498788143686438    0.041303000770452    0.764028051910334  0.0000
  O3     O3        0.635464330601776    0.141767253097336    0.107048262029204  0.0000
  O3     O3        0.870958762326386    0.889911803886770    0.117366060796880  0.0000
  O2     O2        0.373038697862554    0.168193634393229    0.875852844906446  0.0000
  O2     O2        0.118000600140128    0.862518440911099    0.872497226345429  0.0000
  O2     O2        0.401095848901653    0.826813960865784    0.880489345307047  0.0000
  O2     O2        0.090262664515530    0.205286995882999    0.884390086062418  0.0000
  O3     O3        0.582668001829108    0.784986810588216    0.093810832400968  0.0000
  O2     O2        0.909350997504548    0.221884937044060    0.090870178307762  0.0000
  O3     O3        0.485298034166968    0.062611580810913    0.015380290696756  0.0000
  O2     O2        0.989816573820721    0.967470381126313    0.979525046013515  0.0000
  O3     O3        0.131337015870480    0.549691736688419    0.301880483830332  0.0000
  O2     O2        0.362625022253083    0.509061243614278    0.296026331710307  0.0000
  O2     O2        0.863229549609858    0.543922285892563    0.683700788452396  0.0000
  O3     O3        0.628501705692083    0.499995827803388    0.685023049864455  0.0000
  O3     O3        0.248042857898475    0.285002846574751    0.320984044056019  0.0000
  O2     O2        0.253956583668123    0.753390382746059    0.303570053744724  0.0000
  O3     O3        0.760991768098567    0.288914881054064    0.656492002897263  0.0000
  O2     O2        0.737928626912792    0.742405351858249    0.663032510560923  0.0000
  O3     O3        0.136075559870088    0.275688714848819    0.118776646081031  0.0000
  O2     O2        0.358365324744098    0.751492592465182    0.114721544111050  0.0000
  O2     O2        0.859506730864327    0.289323898510660    0.854248929720847  0.0000
  O2     O2        0.642976955016564    0.742535094216419    0.863258373865706  0.0000
  O3     O3        0.833976178720695    0.798209221014488    0.855297249928983  0.0000
  O3     O3        0.660210479068705    0.217729426751879    0.863172662914421  0.0000
  O2     O2        0.150941717957385    0.781840882936994    0.115471115092947  0.0000
  O2     O2        0.338050015844718    0.263701388417378    0.118192901659798  0.0000
  O2     O2        0.628658950171975    0.472240077658937    0.022350347277931  0.0000
  O3     O3        0.874391537747994    0.539135811179246    0.031978190550275  0.0000
  O2     O2        0.363595587754187    0.500823356250970    0.937007376188519  0.0000
  O2     O2        0.127742841443907    0.531183402846923    0.945699276035022  0.0000
  O2     O2        0.761839769332938    0.308263496248171    0.046309802165290  0.0000
  O3     O3        0.732336629501850    0.723929144822334    0.066675650935918  0.0000
  O2     O2        0.237657577136499    0.295819801171987    0.928237717238912  0.0000
  O2     O2        0.253327274820206    0.736888372065708    0.927686388605860  0.0000
