data_c00930.vasp
_audit_creation_method             Generated by GULP
_audit_author_name                 Salvador R. G. Balestra
_symmetry_space_group_name_H-M     'P 1             '
_symmetry_Int_Tables_number        1

loop_
_symmetry_equiv_pos_site_id
_symmetry_equiv_pos_as_xyz
_cell_length_a                       17.0962
_cell_length_b                        7.5948
_cell_length_c                       10.3229
_cell_angle_alpha                   90.8154
_cell_angle_beta                    90.6313
_cell_angle_gamma                   89.5806

loop_
_atom_site_label
_atom_site_type_symbol
_atom_site_fract_x
_atom_site_fract_y
_atom_site_fract_z
_atom_site_charge
  Ge     Ge        0.556730000000016    0.000000000000000    0.122129999999970  0.0000
  Ge     Ge        0.163837983204161    0.273432594828521    0.273895098471009  0.0000
  Ge     Ge        0.846471241596556    0.649239211768550    0.701452202836223  0.0000
  Ge     Ge        0.345842678323197    0.314715060869220    0.962292427960468  0.0000
  Si     Si        0.044551937935352    0.990763748521111    0.362426597445120  0.0000
  Si     Si        0.449572633616235    0.995924805523974    0.369476018416853  0.0000
  Si     Si        0.946835397633025    0.958207604552100    0.617060558253606  0.0000
  Si     Si        0.543520180918430    0.977975051131725    0.632238009994557  0.0000
  Si     Si        0.941116213970954    0.983781233211302    0.106428011360821  0.0000
  Si     Si        0.440914324835054    0.992264407976319    0.879895316984677  0.0000
  Si     Si        0.051431104190582    0.985837820903551    0.868515547051407  0.0000
  Si     Si        0.331275086518552    0.710816797526634    0.272738418595533  0.0000
  Si     Si        0.827221726753601    0.240690813182890    0.716698411851388  0.0000
  Si     Si        0.662306459609667    0.692270803170520    0.705600864068487  0.0000
  Si     Si        0.647450150477258    0.286679538248463    0.720905703642241  0.0000
  Si     Si        0.150731424925842    0.686355312212091    0.276434093122633  0.0000
  Si     Si        0.346407245055676    0.302996699418048    0.272419044722254  0.0000
  Si     Si        0.648327786146818    0.317837306967566    0.021466533774859  0.0000
  Si     Si        0.852086807416835    0.663463632767757    0.009030682621320  0.0000
  Si     Si        0.147142212848798    0.675748200994717    0.975813867661949  0.0000
  Si     Si        0.327334262060945    0.717734227114526    0.970068880466346  0.0000
  Si     Si        0.163098454300996    0.273916787210505    0.965080694261628  0.0000
  Si     Si        0.670849366141308    0.715274311249824    0.007150207661111  0.0000
  Si     Si        0.828268520904387    0.268464497277710    0.020739153410383  0.0000
  O3     O3        0.106436488964845    0.146531827484229    0.369108552598177  0.0000
  O2     O2        0.383393033879124    0.846410152645793    0.355228785338990  0.0000
  O2     O2        0.871834430397231    0.084925206130484    0.641413522825132  0.0000
  O2     O2        0.606867252241815    0.819363463952420    0.620404164222639  0.0000
  O3     O3        0.912876979334259    0.763138323426829    0.611390085390928  0.0000
  O2     O2        0.587339122026110    0.165283497816462    0.640637027027942  0.0000
  O2     O2        0.093759013983967    0.808354949176832    0.362150927219210  0.0000
  O2     O2        0.411230978862463    0.188933587110393    0.349667165547261  0.0000
  O2     O2        0.986687576014719    0.001578756535813    0.482268679981793  0.0000
  O2     O2        0.484838405553660    0.981552741711213    0.512329439422093  0.0000
  O2     O2        0.992967734244126    0.010492740105930    0.233130326509213  0.0000
  O3     O3        0.520706927435335    0.965590832274161    0.273064094973867  0.0000
  O2     O2        0.011530780245355    0.987510537314336    0.728568513897994  0.0000
  O2     O2        0.491809902760919    0.941631685623462    0.756930573435909  0.0000
  O3     O3        0.588650362889172    0.215219112032294    0.108757860889045  0.0000
  O2     O2        0.908057232570771    0.785082495505900    0.099190915461125  0.0000
  O3     O3        0.413052837787845    0.193459474998447    0.875292297367685  0.0000
  O2     O2        0.090220948427405    0.793518135222605    0.887988247568178  0.0000
  O2     O2        0.362703620192081    0.872150501005624    0.884935879196512  0.0000
  O2     O2        0.115471559197091    0.139875517281858    0.872676053297401  0.0000
  O3     O3        0.636189877511835    0.862836738588572    0.098834077916260  0.0000
  O2     O2        0.870245994120921    0.125434707683088    0.111097112784925  0.0000
  O3     O3        0.487357324224489    0.944305499857162    0.009426645090498  0.0000
  O2     O2        0.989900750423325    0.029114271492907    0.979983969876161  0.0000
  O3     O3        0.130857184792775    0.486079429659055    0.298127277917475  0.0000
  O2     O2        0.362327656089916    0.511934471954447    0.293107521060225  0.0000
  O3     O3        0.861476120043984    0.426774983451780    0.677100869814026  0.0000
  O2     O2        0.632052977236784    0.491384008337016    0.690114650970872  0.0000
  O3     O3        0.260698088402269    0.259194479480201    0.321966784169278  0.0000
  O2     O2        0.241040408199157    0.725436970909698    0.316576726366699  0.0000
  O2     O2        0.735264177739190    0.233882047979190    0.679492638351506  0.0000
  O3     O3        0.751003700041542    0.700937835441311    0.659816501512289  0.0000
  O3     O3        0.160604028643515    0.211024064893453    0.112752482506041  0.0000
  O2     O2        0.336627931260444    0.762233822471718    0.122748483034951  0.0000
  O2     O2        0.835337566193134    0.212647030183924    0.870572029092266  0.0000
  O2     O2        0.658890478039245    0.757986511796123    0.855297045239143  0.0000
  O3     O3        0.868046875033172    0.704640166992180    0.860598115752635  0.0000
  O2     O2        0.634498053776267    0.251598970800095    0.872960434543152  0.0000
  O2     O2        0.137520187771921    0.735006745576870    0.125365035565806  0.0000
  O3     O3        0.355611070164800    0.253853927631759    0.122019879584199  0.0000
  O2     O2        0.631521390745757    0.526122744838208    0.034707706556472  0.0000
  O2     O2        0.869004740762926    0.458840243320139    0.041271739879579  0.0000
  O3     O3        0.368679090111926    0.532494227888228    0.940487063806598  0.0000
  O2     O2        0.125165280707474    0.470753811235409    0.957976874092698  0.0000
  O2     O2        0.737980801198394    0.276935129992803    0.062186818555551  0.0000
  O2     O2        0.762416507183650    0.705909865439731    0.039869789205372  0.0000
  O3     O3        0.250706039198034    0.278323907986818    0.914141264148833  0.0000
  O2     O2        0.236036537334451    0.702992928252375    0.932428590085359  0.0000
