data_c00917.vasp
_audit_creation_method             Generated by GULP
_audit_author_name                 Salvador R. G. Balestra
_symmetry_space_group_name_H-M     'P 1             '
_symmetry_Int_Tables_number        1

loop_
_symmetry_equiv_pos_site_id
_symmetry_equiv_pos_as_xyz
_cell_length_a                       17.1603
_cell_length_b                        7.6501
_cell_length_c                       10.2663
_cell_angle_alpha                   92.0094
_cell_angle_beta                    90.4508
_cell_angle_gamma                   90.2454

loop_
_atom_site_label
_atom_site_type_symbol
_atom_site_fract_x
_atom_site_fract_y
_atom_site_fract_z
_atom_site_charge
  Ge     Ge        0.556730000000016    0.000000000000000    0.122129999999970  0.0000
  Ge     Ge        0.157807647553026    0.284168279745691    0.275948532511029  0.0000
  Ge     Ge        0.661365641127390    0.689397353866010    0.704240224696557  0.0000
  Ge     Ge        0.347483816480665    0.318811929975468    0.277551513538455  0.0000
  Si     Si        0.043196087659389    0.995904878110904    0.354627799934875  0.0000
  Si     Si        0.450014963970120    0.016682796881089    0.370934061564908  0.0000
  Si     Si        0.947757327822145    0.963353955111630    0.612754964854686  0.0000
  Si     Si        0.543673792095267    0.973384306389792    0.626974421015331  0.0000
  Si     Si        0.943955311252354    0.991925932006729    0.094889260231270  0.0000
  Si     Si        0.439712671299663    0.975159143077115    0.879634838027911  0.0000
  Si     Si        0.057156812289950    0.971334784100151    0.857130593297349  0.0000
  Si     Si        0.332103950773103    0.725744139978249    0.261155822298175  0.0000
  Si     Si        0.833087497052995    0.258976666519204    0.706307056039390  0.0000
  Si     Si        0.844640394824185    0.660202939511701    0.701050853508854  0.0000
  Si     Si        0.653199869459958    0.276649859708504    0.707822922307644  0.0000
  Si     Si        0.152492755909138    0.694992014884612    0.263274891655953  0.0000
  Si     Si        0.653769809835078    0.306755872598450    0.009726308991205  0.0000
  Si     Si        0.847649094473991    0.672780379627672    0.007334804462745  0.0000
  Si     Si        0.345823068361302    0.292770074825019    0.970439643235993  0.0000
  Si     Si        0.150186252867714    0.660977250178794    0.956952742319778  0.0000
  Si     Si        0.329831845337862    0.685126891635196    0.953335626293335  0.0000
  Si     Si        0.161288537138295    0.262914448888736    0.969458571179713  0.0000
  Si     Si        0.667929139189793    0.709644523930065    0.010558672040213  0.0000
  Si     Si        0.833010554417339    0.278651793640911    0.011701183459547  0.0000
  O3     O3        0.099496870249327    0.161726938138257    0.373998177616600  0.0000
  O2     O2        0.380820963317062    0.883378038823583    0.326867955370912  0.0000
  O2     O2        0.884879108878406    0.117855747824744    0.628854708747824  0.0000
  O3     O3        0.600942207648245    0.810495819972922    0.608932608977354  0.0000
  O2     O2        0.905616878975762    0.775723478628788    0.622612970112052  0.0000
  O2     O2        0.596255254822274    0.148953455006815    0.624130485860669  0.0000
  O2     O2        0.096146491702412    0.823759270642714    0.342687656894184  0.0000
  O3     O3        0.414260628282029    0.208889458955596    0.369669880057519  0.0000
  O2     O2        0.983542206593037    0.975665032508210    0.470994347462828  0.0000
  O2     O2        0.478262500140679    0.974101209584847    0.515659960106474  0.0000
  O2     O2        0.993909662137091    0.020089771919591    0.223796696588449  0.0000
  O3     O3        0.524003709187635    0.996601746616836    0.278878507553847  0.0000
  O2     O2        0.018026018345204    0.983122988219225    0.716318870379536  0.0000
  O2     O2        0.500134375188471    0.960280027304190    0.763811823360695  0.0000
  O3     O3        0.595839863834080    0.204964808099594    0.099034975536249  0.0000
  O2     O2        0.905080756282344    0.799319205406645    0.090893311497800  0.0000
  O2     O2        0.394727560620946    0.160611677111910    0.877479675712510  0.0000
  O2     O2        0.092495160714803    0.777373382299650    0.872194930441433  0.0000
  O2     O2        0.376974585509536    0.816914606559330    0.865105048230683  0.0000
  O2     O2        0.125230265682934    0.117557860081667    0.869111552013332  0.0000
  O3     O3        0.626772116352967    0.839606946567101    0.110674032347663  0.0000
  O2     O2        0.877931301019653    0.140990848408096    0.097772873447733  0.0000
  O3     O3        0.482404170775442    0.950599344843306    0.015690884173131  0.0000
  O2     O2        0.994703390982876    0.017017706060855    0.967244104386844  0.0000
  O3     O3        0.139955979620241    0.502365754022631    0.310735800288811  0.0000
  O3     O3        0.356404838769412    0.540364548503617    0.314678077234682  0.0000
  O2     O2        0.861017528723128    0.454150312492737    0.672697890634677  0.0000
  O3     O3        0.632347254593032    0.474464724046518    0.682680524180458  0.0000
  O1     O1        0.254668467981207    0.249413699040427    0.304253540911002  0.0000
  O2     O2        0.241100899221755    0.758809608340200    0.290564897758996  0.0000
  O2     O2        0.742428771835418    0.235905945302828    0.665966645781059  0.0000
  O3     O3        0.757651934334511    0.705117846890147    0.658421763564528  0.0000
  O3     O3        0.134385018780346    0.230993289913026    0.114975949379245  0.0000
  O2     O2        0.345273195833092    0.723875607315927    0.106056566029351  0.0000
  O2     O2        0.841681654830955    0.227173775413917    0.859462507715243  0.0000
  O3     O3        0.653884025646771    0.767346362721106    0.863477551716639  0.0000
  O2     O2        0.857095944383988    0.706068714523441    0.854388280245633  0.0000
  O2     O2        0.642345156501632    0.236886889817326    0.860402610393350  0.0000
  O2     O2        0.134571480116128    0.704026610918864    0.108880310779852  0.0000
  O3     O3        0.375574474436577    0.277635391814172    0.117238571534614  0.0000
  O2     O2        0.634663036096546    0.512360014508583    0.020097446872040  0.0000
  O2     O2        0.868452781722419    0.473009408914259    0.039069371156967  0.0000
  O2     O2        0.357932823587355    0.487789331280383    0.918299397373492  0.0000
  O2     O2        0.134445466204514    0.455603927195389    0.925747100796229  0.0000
  O2     O2        0.742957876544709    0.273587878424893    0.053018415227261  0.0000
  O2     O2        0.759315978501816    0.712456011126575    0.046440215399129  0.0000
  O2     O2        0.254462961119663    0.246584424901473    0.968377024558665  0.0000
  O2     O2        0.238731232310780    0.707133064153228    0.920826858992774  0.0000
