data_c00975.vasp
_audit_creation_method             Generated by GULP
_audit_author_name                 Salvador R. G. Balestra
_symmetry_space_group_name_H-M     'P 1             '
_symmetry_Int_Tables_number        1

loop_
_symmetry_equiv_pos_site_id
_symmetry_equiv_pos_as_xyz
_cell_length_a                       17.0579
_cell_length_b                        7.6386
_cell_length_c                       10.2555
_cell_angle_alpha                   91.7150
_cell_angle_beta                    91.0647
_cell_angle_gamma                   89.9951

loop_
_atom_site_label
_atom_site_type_symbol
_atom_site_fract_x
_atom_site_fract_y
_atom_site_fract_z
_atom_site_charge
  Ge     Ge        0.556730000000016    0.000000000000000    0.122129999999970  0.0000
  Ge     Ge        0.161072177108092    0.277755930969823    0.282930680912121  0.0000
  Ge     Ge        0.146951746893952    0.648474321617766    0.954336119087990  0.0000
  Ge     Ge        0.333931752363244    0.667135646140279    0.950100121882674  0.0000
  Si     Si        0.046661074466418    0.991603548344958    0.360080097022810  0.0000
  Si     Si        0.450307835917362    0.000034421943210    0.371928278548665  0.0000
  Si     Si        0.945225199851817    0.978342887173819    0.612512679082206  0.0000
  Si     Si        0.547650612619027    0.994716300565202    0.631781098365802  0.0000
  Si     Si        0.945496585834356    0.992591132798846    0.100381440845956  0.0000
  Si     Si        0.441061522940443    0.962868560185915    0.877284409687145  0.0000
  Si     Si        0.054059791593125    0.966580973140854    0.858568552992464  0.0000
  Si     Si        0.334996313345941    0.704687511029166    0.262026443642381  0.0000
  Si     Si        0.832563013487539    0.273949950468063    0.705201872005965  0.0000
  Si     Si        0.662372111644262    0.705373128151994    0.712398743874783  0.0000
  Si     Si        0.844068620073224    0.675197443030693    0.709001793204385  0.0000
  Si     Si        0.652593220201372    0.302289012007777    0.706295482607785  0.0000
  Si     Si        0.154433939636662    0.689567621217637    0.264455539483948  0.0000
  Si     Si        0.345906606063690    0.300112955199558    0.281157661590114  0.0000
  Si     Si        0.652346976592209    0.312639976633820    0.010635679743589  0.0000
  Si     Si        0.851073647062451    0.673396930397218    0.012014987699024  0.0000
  Si     Si        0.343158833297709    0.274773640696848    0.979693722328390  0.0000
  Si     Si        0.159110471106323    0.249743461776176    0.977393222815369  0.0000
  Si     Si        0.669525854318842    0.711366911852892    0.015219143990075  0.0000
  Si     Si        0.832960444386311    0.277697880383995    0.010920636659960  0.0000
  O3     O3        0.104433930186030    0.155186821961978    0.383132336542107  0.0000
  O2     O2        0.389105441062309    0.843293739935891    0.341819785734373  0.0000
  O2     O2        0.883627435912005    0.138127396602485    0.620811180813734  0.0000
  O2     O2        0.609988863815440    0.834794498305192    0.626418121743460  0.0000
  O2     O2        0.899911871069931    0.794680186461129    0.625167178311674  0.0000
  O2     O2        0.593983369343657    0.178434615477630    0.620648347292930  0.0000
  O2     O2        0.099377736099680    0.817260787701242    0.349799977801925  0.0000
  O2     O2        0.406876102752994    0.188537985717830    0.366850112958780  0.0000
  O2     O2        0.984808544338202    0.974859795294959    0.473431977908233  0.0000
  O2     O2        0.484081805721752    0.974017819083354    0.516955219460460  0.0000
  O2     O2        0.997350457373898    0.024074454604332    0.228429300385993  0.0000
  O3     O3        0.523558066970308    0.995581456698381    0.278056523252815  0.0000
  O2     O2        0.013458119631895    0.004917838455588    0.720693082646204  0.0000
  O2     O2        0.503063065778361    0.995174496648101    0.767219348230743  0.0000
  O3     O3        0.591869755774858    0.206908854712806    0.092634793185688  0.0000
  O2     O2        0.909111639146883    0.796596785403664    0.099107340240187  0.0000
  O2     O2        0.382662989645245    0.128722396174104    0.888612209762817  0.0000
  O3     O3        0.080803021041326    0.767276668376593    0.862978505967974  0.0000
  O3     O3        0.388752030742819    0.792980290095410    0.849183454103255  0.0000
  O2     O2        0.129994149321830    0.093635801061858    0.878773332275769  0.0000
  O3     O3        0.632220038223275    0.850453965885051    0.111476358528792  0.0000
  O2     O2        0.876957428597959    0.137562485264282    0.098651927629793  0.0000
  O3     O3        0.484069426406246    0.934896961285011    0.015089602064164  0.0000
  O2     O2        0.996083456837176    0.021751716843055    0.973737382083519  0.0000
  O3     O3        0.130438412977126    0.491881421396044    0.289978139519792  0.0000
  O2     O2        0.365445027818797    0.507597870414735    0.289547478497125  0.0000
  O2     O2        0.860460462335256    0.470908032808851    0.675818001231326  0.0000
  O2     O2        0.634449416122346    0.505966931673822    0.681399563886039  0.0000
  O3     O3        0.258857273377077    0.267594458285127    0.328800332527469  0.0000
  O2     O2        0.245234523573327    0.721467363955069    0.309245604275562  0.0000
  O2     O2        0.741151866824929    0.255582310062772    0.664996354855320  0.0000
  O2     O2        0.753734080707470    0.723074870519043    0.677387968731229  0.0000
  O3     O3        0.150678070938022    0.193302496844298    0.125293824219299  0.0000
  O3     O3        0.336275649989872    0.744659273626225    0.110612467024319  0.0000
  O2     O2        0.842618111751527    0.232386456876008    0.857597154749933  0.0000
  O2     O2        0.651725587872544    0.758754094947867    0.864505730571477  0.0000
  O2     O2        0.864979348930991    0.714510581010030    0.860832370660503  0.0000
  O2     O2        0.640564200739206    0.261932567573122    0.857696383949206  0.0000
  O3     O3        0.144691374265863    0.730871422574648    0.113106354331227  0.0000
  O2     O2        0.357134458899367    0.230269572407107    0.131675744426927  0.0000
  O2     O2        0.635527991395274    0.517823977009806    0.037310856450198  0.0000
  O2     O2        0.869289367008803    0.470996545144726    0.041343214348365  0.0000
  O3     O3        0.376949786864972    0.462030012851639    0.947536946427439  0.0000
  O3     O3        0.116056468950895    0.432330118966112    0.951634728357994  0.0000
  O2     O2        0.742303868509856    0.270397394652538    0.050138521688409  0.0000
  O2     O2        0.762018117513589    0.715294076524783    0.045683219607744  0.0000
  O2     O2        0.250339885087919    0.290461847249144    0.951259094811469  0.0000
  O1     O1        0.239008466064160    0.670783427927590    0.894915965723547  0.0000
