data_c00922.vasp
_audit_creation_method             Generated by GULP
_audit_author_name                 Salvador R. G. Balestra
_symmetry_space_group_name_H-M     'P 1             '
_symmetry_Int_Tables_number        1

loop_
_symmetry_equiv_pos_site_id
_symmetry_equiv_pos_as_xyz
_cell_length_a                       17.1609
_cell_length_b                        7.6455
_cell_length_c                       10.2362
_cell_angle_alpha                   91.1010
_cell_angle_beta                    90.3983
_cell_angle_gamma                   90.0237

loop_
_atom_site_label
_atom_site_type_symbol
_atom_site_fract_x
_atom_site_fract_y
_atom_site_fract_z
_atom_site_charge
  Ge     Ge        0.556730000000016    0.000000000000000    0.122129999999970  0.0000
  Ge     Ge        0.163003089965172    0.283497547147756    0.275857007522477  0.0000
  Ge     Ge        0.664113460993482    0.706949606804114    0.705775607153461  0.0000
  Ge     Ge        0.331700447918287    0.704534110279677    0.957164737016618  0.0000
  Si     Si        0.046918055496740    0.995130869132483    0.355528154828541  0.0000
  Si     Si        0.448200633735216    0.011854883504978    0.371400702178928  0.0000
  Si     Si        0.950251897448140    0.976052368953422    0.614549307553297  0.0000
  Si     Si        0.548168339406824    0.995896101045806    0.625220406454867  0.0000
  Si     Si        0.944476085120312    0.995630694282217    0.098291288148380  0.0000
  Si     Si        0.444228576171940    0.988511987475340    0.876925367870317  0.0000
  Si     Si        0.056927175626895    0.982230686712655    0.861354801197352  0.0000
  Si     Si        0.334040111251569    0.719866371519054    0.268089607362672  0.0000
  Si     Si        0.836173100874998    0.271451219508407    0.709048268771488  0.0000
  Si     Si        0.847444393104580    0.672500419898406    0.705164924546424  0.0000
  Si     Si        0.656409191262826    0.294810920822953    0.706388686218136  0.0000
  Si     Si        0.154839087206388    0.691727561289499    0.268438884616996  0.0000
  Si     Si        0.345912004924895    0.314612439942124    0.273547143639264  0.0000
  Si     Si        0.653824123089571    0.311547285017389    0.009527336319231  0.0000
  Si     Si        0.849328631087667    0.676805986074791    0.011841975237493  0.0000
  Si     Si        0.346910617072030    0.303401765963153    0.968293448004701  0.0000
  Si     Si        0.150202660532383    0.668796351089033    0.961260831351585  0.0000
  Si     Si        0.165862660496086    0.270298292965278    0.965715725342359  0.0000
  Si     Si        0.669621403540865    0.714613800095939    0.013669588606704  0.0000
  Si     Si        0.833111927561618    0.282000764990511    0.015212556006548  0.0000
  O3     O3        0.106051937396475    0.155500944095941    0.372281319810168  0.0000
  O2     O2        0.385759632517775    0.855609828169684    0.352650065446475  0.0000
  O2     O2        0.887733923748704    0.131968730663416    0.629949169978133  0.0000
  O3     O3        0.604964686628171    0.831338044337588    0.608401331520193  0.0000
  O2     O2        0.908235942732063    0.788973059609044    0.626288143170665  0.0000
  O2     O2        0.601143203960783    0.169955166032252    0.618815445980953  0.0000
  O2     O2        0.097896476462936    0.818968442439788    0.348123978514336  0.0000
  O2     O2        0.407816985161483    0.200954133708224    0.353908331569465  0.0000
  O2     O2        0.986389396608251    0.985828651413447    0.472131952945417  0.0000
  O2     O2        0.480308309897370    0.001896237825074    0.518373552248508  0.0000
  O2     O2        0.998215419252998    0.021487790553424    0.223454909466955  0.0000
  O3     O3        0.521309128037606    0.992112310795044    0.277683615544166  0.0000
  O2     O2        0.020232894735956    0.995182873043332    0.718312989713455  0.0000
  O2     O2        0.508057324826473    0.984396246627127    0.765709725150859  0.0000
  O3     O3        0.594090320646776    0.206324421325918    0.095268920510492  0.0000
  O2     O2        0.907313924281194    0.801309057963290    0.095239074545043  0.0000
  O2     O2        0.402763739932898    0.177856572455704    0.884471811124455  0.0000
  O2     O2        0.088865962208622    0.785809289962996    0.881931124255154  0.0000
  O3     O3        0.379015876018815    0.841679105781825    0.853892884729435  0.0000
  O2     O2        0.125621654493575    0.125921414826065    0.871314318948655  0.0000
  O3     O3        0.628717914535121    0.843137079459064    0.114363090539557  0.0000
  O2     O2        0.877026322977865    0.142144053692633    0.103697868394686  0.0000
  O3     O3        0.484329055551168    0.942833053406534    0.013839901656828  0.0000
  O2     O2        0.993085649420857    0.030886334819701    0.968794667651335  0.0000
  O3     O3        0.131776068598152    0.495689700745451    0.297709280804337  0.0000
  O2     O2        0.364282423501699    0.521752482776590    0.290061014832120  0.0000
  O2     O2        0.864917702754171    0.467232143020689    0.677504556122640  0.0000
  O3     O3        0.634813636680521    0.493059624041547    0.682297237224241  0.0000
  O3     O3        0.259909780372599    0.273385204930948    0.321748882298554  0.0000
  O2     O2        0.243948674757368    0.731775522338634    0.312706634847762  0.0000
  O2     O2        0.745858529310864    0.253824811980438    0.666443860700602  0.0000
  O3     O3        0.760791119971839    0.720095487097730    0.661579934606146  0.0000
  O3     O3        0.155956109546661    0.215450489290900    0.114490582456760  0.0000
  O3     O3        0.339566523795178    0.772060505293162    0.118336007987163  0.0000
  O2     O2        0.843200859588358    0.233603158081763    0.862625734459024  0.0000
  O3     O3        0.656058067957446    0.777188809726448    0.866358176526293  0.0000
  O2     O2        0.859295317790056    0.715066243697861    0.858970332051057  0.0000
  O2     O2        0.644334305481204    0.249491528530456    0.858688396942732  0.0000
  O2     O2        0.147707738282074    0.725757299198548    0.113604508184793  0.0000
  O2     O2        0.355425641431176    0.259322225556807    0.121441082844944  0.0000
  O2     O2        0.635763259458760    0.517657723091310    0.022712794921410  0.0000
  O2     O2        0.868856987599230    0.475308733266365    0.043315211353267  0.0000
  O3     O3        0.372103004440813    0.498727635848958    0.941430659620320  0.0000
  O2     O2        0.128440949469863    0.462993016376600    0.945201826233860  0.0000
  O2     O2        0.742696852169549    0.275544841437463    0.054784676371603  0.0000
  O2     O2        0.760889544475433    0.716338058906415    0.050554908555308  0.0000
  O2     O2        0.256703319094745    0.276297447812085    0.927677881187349  0.0000
  O3     O3        0.235735993077185    0.700648083039791    0.907852808116032  0.0000
