data_c00966.vasp
_audit_creation_method             Generated by GULP
_audit_author_name                 Salvador R. G. Balestra
_symmetry_space_group_name_H-M     'P 1             '
_symmetry_Int_Tables_number        1

loop_
_symmetry_equiv_pos_site_id
_symmetry_equiv_pos_as_xyz
_cell_length_a                       16.9719
_cell_length_b                        7.5935
_cell_length_c                       10.3529
_cell_angle_alpha                   90.8146
_cell_angle_beta                    90.1270
_cell_angle_gamma                   89.9302

loop_
_atom_site_label
_atom_site_type_symbol
_atom_site_fract_x
_atom_site_fract_y
_atom_site_fract_z
_atom_site_charge
  Ge     Ge        0.556730000000016    0.000000000000000    0.122129999999970  0.0000
  Ge     Ge        0.150364283709660    0.335086822144373    0.288010785600628  0.0000
  Ge     Ge        0.827885553624988    0.736895029483958    0.018351490839733  0.0000
  Ge     Ge        0.348559065822750    0.677964291677692    0.964955389454736  0.0000
  Si     Si        0.047153527219045    0.029190600678814    0.368873384932417  0.0000
  Si     Si        0.452233157338486    0.011655937885612    0.373739047650115  0.0000
  Si     Si        0.947556801302821    0.010045490237262    0.623250480329634  0.0000
  Si     Si        0.546861842842491    0.000491193691073    0.635139181079753  0.0000
  Si     Si        0.940623152327253    0.020932784532331    0.117370677143936  0.0000
  Si     Si        0.442383448174861    0.999458703555869    0.883155390825166  0.0000
  Si     Si        0.049657641747014    0.998800814277882    0.878559172864417  0.0000
  Si     Si        0.347756377712408    0.706806398981783    0.270134102546865  0.0000
  Si     Si        0.847547757471855    0.322964674112644    0.709387689722522  0.0000
  Si     Si        0.649444450576434    0.687717624111496    0.716228569646244  0.0000
  Si     Si        0.829481551030939    0.728899567365223    0.710960446406172  0.0000
  Si     Si        0.666301904222526    0.283920629211702    0.711674832798417  0.0000
  Si     Si        0.166462529822750    0.744490904127783    0.270220452241744  0.0000
  Si     Si        0.334540552447201    0.299990549944897    0.280777549130476  0.0000
  Si     Si        0.671772983856355    0.279075860855985    0.011417742645448  0.0000
  Si     Si        0.326848486512756    0.274352437962290    0.978131356436184  0.0000
  Si     Si        0.163844278840657    0.713792434386464    0.967363469868320  0.0000
  Si     Si        0.144794912276238    0.315231261094291    0.982235024303571  0.0000
  Si     Si        0.645170903398164    0.673309653113151    0.019017268322393  0.0000
  Si     Si        0.854123328329768    0.336659653979522    0.008562950198832  0.0000
  O3     O3        0.084807024117270    0.220941202124898    0.381877473134549  0.0000
  O2     O2        0.407259937595915    0.826597910277661    0.353615580198886  0.0000
  O2     O2        0.906418273898155    0.203029651989507    0.623660096790092  0.0000
  O2     O2        0.586809747412573    0.806976101793762    0.639923014527701  0.0000
  O2     O2        0.880205637560527    0.860408030038651    0.623979647299355  0.0000
  O2     O2        0.615483347670460    0.147477745335095    0.625893465922958  0.0000
  O2     O2        0.120401785858147    0.895751000049662    0.348175740880307  0.0000
  O2     O2        0.391755973150544    0.174426785896503    0.361292559647615  0.0000
  O2     O2        0.998172081826429    0.982430116565967    0.494989374798415  0.0000
  O2     O2        0.488824940744255    0.012531623801622    0.515411001430641  0.0000
  O2     O2        0.988998066036809    0.012718902679156    0.247874994549629  0.0000
  O3     O3        0.523814595341292    0.032573858361381    0.275885490203109  0.0000
  O2     O2        0.006143757845669    0.988115142361143    0.742773980313483  0.0000
  O2     O2        0.494340291705127    0.043002314992938    0.759855902725847  0.0000
  O3     O3        0.639359071008799    0.129567246246923    0.101021355975179  0.0000
  O3     O3        0.867194823746139    0.890998707928488    0.122207266219174  0.0000
  O2     O2        0.362466019332395    0.117265264737270    0.890902615167462  0.0000
  O2     O2        0.116625762921966    0.848730843257101    0.878396347629629  0.0000
  O3     O3        0.415924155437079    0.797101792765439    0.877780934790876  0.0000
  O2     O2        0.087394184479217    0.192714509951427    0.896115937611383  0.0000
  O3     O3        0.580445799706447    0.780493610894303    0.097567184534087  0.0000
  O2     O2        0.911462246294215    0.220488327564753    0.096310084502457  0.0000
  O3     O3        0.488138014373351    0.061542346828197    0.010790726832355  0.0000
  O2     O2        0.990763596888566    0.951971634033747    0.994322145267490  0.0000
  O3     O3        0.130635435536961    0.556577084420488    0.303475434561695  0.0000
  O2     O2        0.366009712574152    0.500791826458607    0.292207812521902  0.0000
  O2     O2        0.862462514809113    0.530345249589308    0.688799402820198  0.0000
  O2     O2        0.632963353578059    0.480935891428221    0.689396799686921  0.0000
  O3     O3        0.246385809623175    0.292673595312437    0.333628552593278  0.0000
  O2     O2        0.258124153229909    0.749031580725370    0.312528906232723  0.0000
  O2     O2        0.757788189294095    0.275580847400391    0.670133060988878  0.0000
  O2     O2        0.737532033866367    0.734947363360765    0.669422804256839  0.0000
  O3     O3        0.133654404319963    0.266187974111775    0.130433417044409  0.0000
  O3     O3        0.361513760535971    0.752821950233014    0.122019691586570  0.0000
  O2     O2        0.864672516957813    0.278416470828981    0.858609094426202  0.0000
  O2     O2        0.640800193047841    0.729242046598105    0.868375046051887  0.0000
  O3     O3        0.835064266712544    0.793081470207541    0.858189597754904  0.0000
  O2     O2        0.660437761192316    0.226489419467097    0.860659555034978  0.0000
  O2     O2        0.162838557432778    0.778298589445499    0.116778330299236  0.0000
  O2     O2        0.333829010818114    0.237006072758369    0.131213509155878  0.0000
  O2     O2        0.627606196909188    0.465816014905607    0.035404043983711  0.0000
  O3     O3        0.875750853086239    0.536889860742933    0.033487399362779  0.0000
  O3     O3        0.369577652414453    0.457167595113592    0.948522154913783  0.0000
  O2     O2        0.123922849287542    0.520007567364537    0.958196401140140  0.0000
  O2     O2        0.763318497515631    0.305402258293862    0.045601421277178  0.0000
  O3     O3        0.731811529813103    0.720446232152644    0.068376988079275  0.0000
  O2     O2        0.235154518476345    0.285755473760148    0.940671132047648  0.0000
  O3     O3        0.252398793195039    0.708324942538701    0.917161256512613  0.0000
