data_c00985.vasp
_audit_creation_method             Generated by GULP
_audit_author_name                 Salvador R. G. Balestra
_symmetry_space_group_name_H-M     'P 1             '
_symmetry_Int_Tables_number        1

loop_
_symmetry_equiv_pos_site_id
_symmetry_equiv_pos_as_xyz
_cell_length_a                       17.0836
_cell_length_b                        7.5928
_cell_length_c                       10.3646
_cell_angle_alpha                   88.9592
_cell_angle_beta                    90.2417
_cell_angle_gamma                   90.5754

loop_
_atom_site_label
_atom_site_type_symbol
_atom_site_fract_x
_atom_site_fract_y
_atom_site_fract_z
_atom_site_charge
  Ge     Ge        0.556730000000016    0.000000000000000    0.122129999999970  0.0000
  Ge     Ge        0.345088059788368    0.692469596375353    0.284621700741525  0.0000
  Ge     Ge        0.850884771257175    0.343454883639533    0.705835863005974  0.0000
  Ge     Ge        0.645811527095973    0.704556299839729    0.713892282677610  0.0000
  Si     Si        0.043559291347544    0.005641327015309    0.360059434567225  0.0000
  Si     Si        0.449245532527060    0.001201679555308    0.373059147503518  0.0000
  Si     Si        0.952499858128823    0.034595665519735    0.622620778020239  0.0000
  Si     Si        0.542481719734122    0.015992970200664    0.630192838190839  0.0000
  Si     Si        0.939313524364849    0.019967477446189    0.109863460051477  0.0000
  Si     Si        0.440405367856743    0.025900723475496    0.882830528612849  0.0000
  Si     Si        0.054418682368669    0.023551475999982    0.875776538856935  0.0000
  Si     Si        0.149100165084217    0.314980466710934    0.270363875258226  0.0000
  Si     Si        0.828570580911262    0.751916910327461    0.710582929741664  0.0000
  Si     Si        0.666198106857217    0.292086324933327    0.710553022577964  0.0000
  Si     Si        0.160936190843386    0.720831957972147    0.278608855308883  0.0000
  Si     Si        0.329150627625732    0.280922560871354    0.270276378828800  0.0000
  Si     Si        0.671787395353353    0.284794357053043    0.010780608167924  0.0000
  Si     Si        0.826184637102460    0.734103793968941    0.015462784574283  0.0000
  Si     Si        0.328367372452202    0.307473505540721    0.967971184273855  0.0000
  Si     Si        0.165124014976749    0.736749882127631    0.976545696154870  0.0000
  Si     Si        0.346535358253147    0.706789869252842    0.977509622407547  0.0000
  Si     Si        0.148315649475730    0.338055451733499    0.969647675687588  0.0000
  Si     Si        0.646737987630480    0.683391656388069    0.018514590288393  0.0000
  Si     Si        0.852414190071212    0.340380982424863    0.011902940233486  0.0000
  O2     O2        0.089953191646024    0.191549547701656    0.351309712968931  0.0000
  O3     O3        0.413388218814019    0.805326760488046    0.373738641380074  0.0000
  O3     O3        0.918374821019643    0.229515639954164    0.617928555457181  0.0000
  O3     O3        0.577884502016933    0.822354413120927    0.625727721166497  0.0000
  O2     O2        0.877467953014142    0.906466733865869    0.640506828379724  0.0000
  O2     O2        0.615710565007078    0.152394432883254    0.629437967774409  0.0000
  O2     O2        0.104612894451428    0.845664302783192    0.358165178683873  0.0000
  O2     O2        0.375615339510542    0.127199849473209    0.342844662338986  0.0000
  O2     O2        0.997152598801985    0.991760576853476    0.492499586123999  0.0000
  O2     O2        0.485585801201809    0.051222394485767    0.510115461851812  0.0000
  O2     O2        0.981623689401640    0.988063109282747    0.245006287702844  0.0000
  O3     O3        0.518703241192599    0.026232988867220    0.272220696198926  0.0000
  O2     O2        0.013252369496095    0.003717337332737    0.739155045506430  0.0000
  O2     O2        0.491455842770177    0.045660256283256    0.756442278107235  0.0000
  O3     O3        0.636257598019759    0.140626314080469    0.105400705614224  0.0000
  O2     O2        0.867417854630414    0.881943557619520    0.101042391100363  0.0000
  O2     O2        0.372044378864721    0.171949201579482    0.877386343499403  0.0000
  O2     O2        0.123515051291691    0.881389481438255    0.886956324720445  0.0000
  O2     O2        0.403165898209159    0.829046825245904    0.889808445600233  0.0000
  O2     O2        0.089949965760460    0.221299764329681    0.884060516631195  0.0000
  O3     O3        0.587587170614137    0.784729470993531    0.108826528301955  0.0000
  O2     O2        0.908190828831366    0.220240619530249    0.102784850252653  0.0000
  O3     O3        0.490837033959153    0.067634457243181    0.007658591060661  0.0000
  O2     O2        0.995739191472036    0.979519809306438    0.991577547496468  0.0000
  O2     O2        0.133329903598310    0.518324508756979    0.301181078846944  0.0000
  O3     O3        0.361581065956883    0.470605438492486    0.308112836444138  0.0000
  O3     O3        0.866348446715243    0.565525788521204    0.680382938851489  0.0000
  O3     O3        0.629449232922884    0.483493214030676    0.691803707544754  0.0000
  O2     O2        0.237793402600051    0.266310905946839    0.309058222703737  0.0000
  O3     O3        0.249885222947611    0.740756263212759    0.324469549740919  0.0000
  O3     O3        0.755357328511095    0.294126938139974    0.663737818791137  0.0000
  O3     O3        0.739547051519613    0.755766752126287    0.662746277265532  0.0000
  O2     O2        0.135571688223791    0.281365270068023    0.118753776474616  0.0000
  O3     O3        0.363783024318174    0.750485099502755    0.125309524486191  0.0000
  O3     O3        0.868718742354404    0.289277797043722    0.865736253210122  0.0000
  O3     O3        0.633176151636437    0.756649019258416    0.873817314583313  0.0000
  O2     O2        0.827614085492069    0.784092676214916    0.864388022577570  0.0000
  O2     O2        0.664464378603810    0.230791652480871    0.861249487276828  0.0000
  O2     O2        0.155546576011108    0.776146780536114    0.127627994678118  0.0000
  O2     O2        0.337337810176611    0.251800313260673    0.117505273024535  0.0000
  O2     O2        0.629853507433897    0.473990524990696    0.026825111984640  0.0000
  O2     O2        0.870086647558112    0.547006043835122    0.036462310335240  0.0000
  O2     O2        0.364764435755897    0.503334513584432    0.948022880801305  0.0000
  O2     O2        0.128977764919597    0.543705603811487    0.946769875235622  0.0000
  O2     O2        0.762621462894894    0.303272046719677    0.047360532487983  0.0000
  O2     O2        0.736528822408689    0.721115306586776    0.061242326586203  0.0000
  O2     O2        0.237355487772123    0.304260364096971    0.928402107947066  0.0000
  O2     O2        0.256479420767332    0.744585802177969    0.942614122285365  0.0000
