data_c01068.vasp
_audit_creation_method             Generated by GULP
_audit_author_name                 Salvador R. G. Balestra
_symmetry_space_group_name_H-M     'P 1             '
_symmetry_Int_Tables_number        1

loop_
_symmetry_equiv_pos_site_id
_symmetry_equiv_pos_as_xyz
_cell_length_a                       16.9720
_cell_length_b                        7.6119
_cell_length_c                       10.3346
_cell_angle_alpha                   89.4309
_cell_angle_beta                    90.9988
_cell_angle_gamma                   90.7978

loop_
_atom_site_label
_atom_site_type_symbol
_atom_site_fract_x
_atom_site_fract_y
_atom_site_fract_z
_atom_site_charge
  Ge     Ge        0.556730000000016    0.000000000000000    0.122129999999970  0.0000
  Ge     Ge        0.852178213814212    0.348871253449040    0.714947675697091  0.0000
  Ge     Ge        0.827485149382567    0.768776642942287    0.718945385440896  0.0000
  Ge     Ge        0.824717158519661    0.752276223738364    0.031499773405615  0.0000
  Si     Si        0.053760465390881    0.023027790214514    0.379074906334046  0.0000
  Si     Si        0.453788456797055    0.018239215346836    0.372836230752465  0.0000
  Si     Si        0.951479412878515    0.043504216006689    0.627655610552358  0.0000
  Si     Si        0.543878875585751    0.009108354699045    0.640873182246240  0.0000
  Si     Si        0.938363873930827    0.033725164194280    0.136422309967984  0.0000
  Si     Si        0.437370173849821    0.032120318153704    0.886161515559187  0.0000
  Si     Si        0.044371079017010    0.016733331951430    0.894247456209496  0.0000
  Si     Si        0.157563165637882    0.327510999031532    0.284735974464969  0.0000
  Si     Si        0.345786998949196    0.714652388838822    0.275242150379637  0.0000
  Si     Si        0.646588400773314    0.695328361344836    0.718793390503288  0.0000
  Si     Si        0.666442312994778    0.294904194198485    0.712790662415515  0.0000
  Si     Si        0.164332663705444    0.731667408357637    0.282031554875385  0.0000
  Si     Si        0.338601511588237    0.310300855970622    0.273615027071590  0.0000
  Si     Si        0.672559553882357    0.285313634860727    0.015254651544564  0.0000
  Si     Si        0.327341079979799    0.314764598361498    0.971484757960884  0.0000
  Si     Si        0.158443678073269    0.731744946794074    0.980193533615917  0.0000
  Si     Si        0.340454563532804    0.714050953205626    0.973555095684127  0.0000
  Si     Si        0.145592852120710    0.331864039184115    0.983127955122010  0.0000
  Si     Si        0.644427479102307    0.674619390627490    0.024721981653310  0.0000
  Si     Si        0.854901211340896    0.349411566124678    0.018413504009428  0.0000
  O2     O2        0.103381732377057    0.204745840136332    0.373772781451407  0.0000
  O2     O2        0.406341869853981    0.834840180130607    0.355233469547312  0.0000
  O3     O3        0.919469753950368    0.239700065765981    0.622526244749651  0.0000
  O2     O2        0.579152561809556    0.813628758426130    0.651105024438835  0.0000
  O3     O3        0.875467976157394    0.916821831877466    0.620126664268687  0.0000
  O2     O2        0.614272212765345    0.153633506344062    0.632714428793771  0.0000
  O2     O2        0.112220894796086    0.859318447325688    0.366371313487281  0.0000
  O2     O2        0.394958601979786    0.180841703708760    0.352772393668941  0.0000
  O2     O2        0.013497276155385    0.007659100198201    0.516810570052073  0.0000
  O2     O2        0.487658796516570    0.024628273757547    0.517024707961185  0.0000
  O2     O2        0.986300726869455    0.021408916172611    0.269831525705142  0.0000
  O3     O3        0.526292606174262    0.028292820092473    0.277324110306242  0.0000
  O2     O2        0.994143064820620    0.998388355781546    0.764389075292847  0.0000
  O2     O2        0.491538343140901    0.049952746279609    0.763457786192069  0.0000
  O3     O3        0.640764044605961    0.127518428889545    0.101051821695713  0.0000
  O3     O3        0.866485786881358    0.897416160125380    0.140787404968332  0.0000
  O2     O2        0.370116283295861    0.180520105392445    0.878834409514832  0.0000
  O2     O2        0.111334028315510    0.868959316664303    0.892105875380530  0.0000
  O2     O2        0.396669028092825    0.838348918415173    0.888610469810152  0.0000
  O2     O2        0.084439879553623    0.210562518014210    0.903316808504748  0.0000
  O3     O3        0.577579784893622    0.782218969760388    0.093723728723502  0.0000
  O2     O2        0.909018873867101    0.233393589375853    0.115847234213700  0.0000
  O3     O3        0.486572067153581    0.073291095356393    0.014757041561395  0.0000
  O2     O2        0.990272499191899    0.972276546240329    0.015951925530800  0.0000
  O2     O2        0.139899845565172    0.530502830529056    0.313945689094461  0.0000
  O2     O2        0.364689386482485    0.510866607540968    0.302819585408028  0.0000
  O1     O1        0.869707985189317    0.567386952791614    0.702144780663327  0.0000
  O2     O2        0.629968529360215    0.489036486862904    0.691016752571854  0.0000
  O2     O2        0.248392649044240    0.283185961297641    0.316518604037387  0.0000
  O2     O2        0.256851322854068    0.758993832365389    0.315361941244779  0.0000
  O3     O3        0.755922654948103    0.295934976622619    0.667686183510824  0.0000
  O3     O3        0.730585885324698    0.749572775464674    0.664029379182086  0.0000
  O2     O2        0.137124506650390    0.286363668929269    0.134955157548788  0.0000
  O2     O2        0.358260065797221    0.757502192391890    0.123803523794509  0.0000
  O3     O3        0.867994230709943    0.282468138757157    0.874112400747080  0.0000
  O2     O2        0.648343636884895    0.728321389989799    0.872846687006378  0.0000
  O1     O1        0.827796139650233    0.833921129747492    0.876931839070705  0.0000
  O2     O2        0.665002750890243    0.237419251801583    0.863722077994111  0.0000
  O2     O2        0.149526208934025    0.776308956697476    0.131218507555456  0.0000
  O2     O2        0.344164719808422    0.268388894750454    0.121864009142567  0.0000
  O2     O2        0.625650278821869    0.466207539656159    0.040480519542429  0.0000
  O3     O3        0.874412583001276    0.553582243954902    0.032275602436717  0.0000
  O2     O2        0.358892538590180    0.512146826637303    0.942532557692711  0.0000
  O2     O2        0.125162640619787    0.534933830107929    0.954425025438581  0.0000
  O2     O2        0.763239054279909    0.321252431691910    0.053193649448449  0.0000
  O3     O3        0.729553850107331    0.722344590225612    0.084464752162790  0.0000
  O2     O2        0.234463348137028    0.297228304012293    0.940343431005952  0.0000
  O2     O2        0.249246719077981    0.749295697010952    0.940702811182158  0.0000
