data_c01044.vasp
_audit_creation_method             Generated by GULP
_audit_author_name                 Salvador R. G. Balestra
_symmetry_space_group_name_H-M     'P 1             '
_symmetry_Int_Tables_number        1

loop_
_symmetry_equiv_pos_site_id
_symmetry_equiv_pos_as_xyz
_cell_length_a                       17.0625
_cell_length_b                        7.6290
_cell_length_c                       10.2561
_cell_angle_alpha                   88.8653
_cell_angle_beta                    89.5072
_cell_angle_gamma                   90.2725

loop_
_atom_site_label
_atom_site_type_symbol
_atom_site_fract_x
_atom_site_fract_y
_atom_site_fract_z
_atom_site_charge
  Ge     Ge        0.556730000000016    0.000000000000000    0.122129999999970  0.0000
  Ge     Ge        0.334200278801558    0.721448532431997    0.302659946002764  0.0000
  Ge     Ge        0.355408770322033    0.340785589657795    0.978173233149747  0.0000
  Ge     Ge        0.168499323055942    0.306813387790595    0.968763291685043  0.0000
  Si     Si        0.048477587642317    0.990794013390735    0.376764161015842  0.0000
  Si     Si        0.450095601573052    0.005195981062498    0.381911442858211  0.0000
  Si     Si        0.949273856487187    0.997058412081466    0.636552463692577  0.0000
  Si     Si        0.552098038163694    0.010469226085158    0.633084199311378  0.0000
  Si     Si        0.947884456693238    0.000082585541305    0.123586916966853  0.0000
  Si     Si        0.446611153745077    0.020408325461726    0.877331849372071  0.0000
  Si     Si        0.059530406169837    0.014480279079786    0.883135341800779  0.0000
  Si     Si        0.165938573047442    0.282059347358173    0.279699799018360  0.0000
  Si     Si        0.836087066808142    0.288416756232277    0.724280019746596  0.0000
  Si     Si        0.665504480181580    0.717898081308287    0.730292307961449  0.0000
  Si     Si        0.845680162831142    0.689466382491450    0.717125435496469  0.0000
  Si     Si        0.655124314469999    0.312613066865987    0.734992592751908  0.0000
  Si     Si        0.150494198665607    0.686240025101472    0.293309714270657  0.0000
  Si     Si        0.346812996183143    0.310898851849533    0.288202619915331  0.0000
  Si     Si        0.655708338617542    0.320164091581074    0.037173589965121  0.0000
  Si     Si        0.853936904717835    0.685219487746057    0.021770594214564  0.0000
  Si     Si        0.154640263915511    0.702494777614648    0.991374535125551  0.0000
  Si     Si        0.337539544283235    0.741969434909836    0.995287557204245  0.0000
  Si     Si        0.673552268065825    0.719661029920933    0.033159861074171  0.0000
  Si     Si        0.837038743638223    0.288579296173382    0.028987012086671  0.0000
  O2     O2        0.114396842537148    0.141621196834126    0.361756501777756  0.0000
  O3     O3        0.387379863674790    0.850513059374363    0.405723006186261  0.0000
  O2     O2        0.887200010139347    0.156118911532055    0.639643623809669  0.0000
  O2     O2        0.611949460880928    0.848175925128559    0.645590696796226  0.0000
  O2     O2        0.901797711846143    0.813876734245536    0.629109441041890  0.0000
  O2     O2        0.597114580826812    0.194233802053855    0.651978282767923  0.0000
  O2     O2        0.088333040656512    0.798684796415584    0.375993534923750  0.0000
  O2     O2        0.403256894471366    0.188260356052782    0.375338649370481  0.0000
  O2     O2        0.005468498004587    0.018772386223200    0.513138629087186  0.0000
  O2     O2        0.517338023652585    0.013484718124106    0.489234198515111  0.0000
  O2     O2        0.983301942856028    0.006428093137036    0.266145788687559  0.0000
  O3     O3        0.493237868944487    0.962539954633489    0.247193739575051  0.0000
  O2     O2        0.001911865483213    0.996945080876019    0.764035395880658  0.0000
  O2     O2        0.479319971268574    0.988948269742228    0.732357018155359  0.0000
  O3     O3        0.597083507635984    0.208772529263709    0.126749145535402  0.0000
  O2     O2        0.914385117450551    0.805427511818623    0.098873622712122  0.0000
  O3     O3        0.424519385004228    0.222235884758989    0.894008407223070  0.0000
  O2     O2        0.109691504015651    0.837490684957861    0.898332860006103  0.0000
  O2     O2        0.368816728386594    0.899587606257547    0.901490896285726  0.0000
  O3     O3        0.118403796178322    0.174981490042356    0.863710927499289  0.0000
  O3     O3        0.632832481133974    0.851172899590444    0.128227261361877  0.0000
  O2     O2        0.879523546446960    0.144260476127422    0.117646082628035  0.0000
  O3     O3        0.510611760999231    0.955496768417274    0.978967596471713  0.0000
  O2     O2        0.012896651207085    0.053496008440392    0.016637967446388  0.0000
  O2     O2        0.132234379050804    0.477832552567308    0.302151137727283  0.0000
  O3     O3        0.369002752618099    0.510346866893255    0.312742935317713  0.0000
  O2     O2        0.863132037461416    0.486607083524952    0.687598354253354  0.0000
  O2     O2        0.637238761837878    0.517892928223182    0.708889215611023  0.0000
  O2     O2        0.255831420413489    0.275610773610787    0.328697837940218  0.0000
  O3     O3        0.236458766346163    0.722671891397378    0.346478764851976  0.0000
  O2     O2        0.744097708751356    0.267574591136017    0.693345223904075  0.0000
  O2     O2        0.755786227714375    0.735386257320316    0.683989570698440  0.0000
  O3     O3        0.166014007540913    0.233037631087843    0.129307965529031  0.0000
  O3     O3        0.343423544508123    0.800051502160495    0.144014400827377  0.0000
  O2     O2        0.848947791352998    0.245291164059231    0.876940827961975  0.0000
  O2     O2        0.659646883291842    0.770978850263871    0.881182166508359  0.0000
  O2     O2        0.863407583295367    0.726264041518192    0.868065252719557  0.0000
  O2     O2        0.640351542521193    0.265859385463576    0.887261317189689  0.0000
  O2     O2        0.143041544716293    0.752161161167964    0.142839418695834  0.0000
  O3     O3        0.359442229996603    0.264683156309333    0.138003064742925  0.0000
  O2     O2        0.638921039385498    0.524384389253270    0.057966239359428  0.0000
  O2     O2        0.872722824370413    0.481697391222109    0.054428792303767  0.0000
  O3     O3        0.382278935851355    0.560270117215100    0.973565837957976  0.0000
  O3     O3        0.124316687366384    0.510168725715003    0.963351530312025  0.0000
  O2     O2        0.746089293204895    0.280148232074201    0.069225403274293  0.0000
  O2     O2        0.765605093108538    0.725611664751872    0.065097220578258  0.0000
  O1     O1        0.263988192708482    0.310311583485655    0.917383081144497  0.0000
  O2     O2        0.247308623133578    0.701968379523800    0.959758497524140  0.0000
