data_c01086.vasp
_audit_creation_method             Generated by GULP
_audit_author_name                 Salvador R. G. Balestra
_symmetry_space_group_name_H-M     'P 1             '
_symmetry_Int_Tables_number        1

loop_
_symmetry_equiv_pos_site_id
_symmetry_equiv_pos_as_xyz
_cell_length_a                       16.9530
_cell_length_b                        7.6227
_cell_length_c                       10.3439
_cell_angle_alpha                   88.9521
_cell_angle_beta                    90.3354
_cell_angle_gamma                   90.6147

loop_
_atom_site_label
_atom_site_type_symbol
_atom_site_fract_x
_atom_site_fract_y
_atom_site_fract_z
_atom_site_charge
  Ge     Ge        0.556730000000016    0.000000000000000    0.122129999999970  0.0000
  Ge     Ge        0.855463955315107    0.340946024197625    0.718048542757869  0.0000
  Ge     Ge        0.829033170277214    0.735694935470843    0.033904829646993  0.0000
  Ge     Ge        0.331286292532385    0.303674224646253    0.974865936430856  0.0000
  Si     Si        0.055093827771902    0.015453643777073    0.378196502172905  0.0000
  Si     Si        0.455532334735134    0.009892302778004    0.378493737560616  0.0000
  Si     Si        0.956085431947290    0.032819853863956    0.633773079596105  0.0000
  Si     Si        0.552818709943144    0.007485943527064    0.637940762895852  0.0000
  Si     Si        0.941205200650973    0.017729981539803    0.133927393427443  0.0000
  Si     Si        0.442874308922532    0.024892274814556    0.882777562271642  0.0000
  Si     Si        0.050773301903276    0.017481447638098    0.896564907273594  0.0000
  Si     Si        0.159362533902221    0.325788127537823    0.292495076374760  0.0000
  Si     Si        0.350401256279670    0.705998446254102    0.281075945196443  0.0000
  Si     Si        0.655635559602714    0.697784655950340    0.720217524884110  0.0000
  Si     Si        0.835866283606850    0.751618460994520    0.727818563049135  0.0000
  Si     Si        0.670315090375039    0.297923863339744    0.711688112848958  0.0000
  Si     Si        0.168564705309567    0.727251884878578    0.289793286415294  0.0000
  Si     Si        0.339600402515007    0.298877077216178    0.282195565597207  0.0000
  Si     Si        0.673505706069277    0.284873774408654    0.013678464786856  0.0000
  Si     Si        0.164398981723313    0.731719146661355    0.988478723860784  0.0000
  Si     Si        0.348233173374625    0.707605434162949    0.981640426510017  0.0000
  Si     Si        0.147452216992173    0.335199791561640    0.988293820973289  0.0000
  Si     Si        0.645839622481017    0.675809738778096    0.023055750801571  0.0000
  Si     Si        0.857311493111322    0.336873638177095    0.021480383268738  0.0000
  O2     O2        0.101191152694137    0.201698558304525    0.375667624331898  0.0000
  O2     O2        0.410163454587181    0.823355351900482    0.363741721559594  0.0000
  O3     O3        0.920968253958751    0.226314219450017    0.625842260936442  0.0000
  O2     O2        0.596999018962666    0.821244672618082    0.637925783424501  0.0000
  O2     O2        0.882384742108821    0.897238376010757    0.642667367724355  0.0000
  O2     O2        0.616820474651899    0.165509636019013    0.628361565164053  0.0000
  O2     O2        0.118125494949652    0.858814132668715    0.374032919871889  0.0000
  O2     O2        0.394630295704815    0.170247691471852    0.366041015790110  0.0000
  O2     O2        0.007001462012539    0.993410159420007    0.508814243228176  0.0000
  O2     O2        0.492529262286840    0.016581665295758    0.520164754781220  0.0000
  O2     O2        0.994659144463596    0.004450810379575    0.260022681046795  0.0000
  O3     O3        0.525722407001292    0.026989282533199    0.277393818483936  0.0000
  O2     O2        0.012936668808720    0.005614816720306    0.756589913762886  0.0000
  O2     O2        0.503847839089319    0.028355798590264    0.767669708127424  0.0000
  O3     O3        0.640438123658098    0.128931276980359    0.100659731142809  0.0000
  O3     O3        0.869861659391114    0.880593053231149    0.141684366815033  0.0000
  O3     O3        0.375578367517579    0.168630506171276    0.867173059978363  0.0000
  O2     O2        0.122478602791287    0.880103265879246    0.902364767888689  0.0000
  O2     O2        0.401798866647583    0.832952717168829    0.892282631482048  0.0000
  O2     O2        0.081757215919907    0.215980312209639    0.918890607984417  0.0000
  O3     O3        0.579848169329219    0.782952582713666    0.095605306624415  0.0000
  O2     O2        0.908600693337736    0.215334845982792    0.118677785656417  0.0000
  O3     O3        0.486763779225160    0.074839443964308    0.015130622165973  0.0000
  O2     O2        0.989106376179527    0.959872686604018    0.006839748661907  0.0000
  O2     O2        0.140113464427623    0.528184999315939    0.321060230940837  0.0000
  O2     O2        0.369027876759131    0.500057954560419    0.299446817136343  0.0000
  O3     O3        0.874236960075530    0.563000640079791    0.708961748145691  0.0000
  O2     O2        0.636338477701234    0.494600365556687    0.691455374692928  0.0000
  O2     O2        0.249422124435153    0.283316149702540    0.331531112395146  0.0000
  O2     O2        0.261151625096188    0.746113646711200    0.324023213761345  0.0000
  O3     O3        0.760230134250269    0.295189415007124    0.667373274535684  0.0000
  O2     O2        0.745144318150688    0.741265427663564    0.678150324210156  0.0000
  O2     O2        0.147338722617587    0.288779649725033    0.141071751138699  0.0000
  O2     O2        0.363377410460565    0.760084965597528    0.130997515166363  0.0000
  O3     O3        0.872011203314685    0.274618905197038    0.876534398437856  0.0000
  O2     O2        0.645482788382579    0.735035802255825    0.871791680720993  0.0000
  O3     O3        0.835695086867976    0.809221515363316    0.875647156150348  0.0000
  O2     O2        0.666808422624678    0.237843434724605    0.862247583197258  0.0000
  O2     O2        0.155981706152319    0.776484243533349    0.139248447214578  0.0000
  O3     O3        0.342975395709800    0.240993240401445    0.134858363222768  0.0000
  O2     O2        0.627402239430117    0.467247129810819    0.037310222538985  0.0000
  O3     O3        0.878564679827339    0.537985292071713    0.042937124257499  0.0000
  O3     O3        0.371691699758187    0.511073772090714    0.956401013905257  0.0000
  O2     O2        0.126124905687676    0.539923609200366    0.963227924581073  0.0000
  O2     O2        0.764278573786334    0.316955552171899    0.050931868150488  0.0000
  O3     O3        0.731828642692635    0.718184168055998    0.079937148832308  0.0000
  O3     O3        0.232867787220946    0.299227894704514    0.933139798166374  0.0000
  O2     O2        0.255774258981422    0.731047250721017    0.948974872253614  0.0000
