data_c01025.vasp
_audit_creation_method             Generated by GULP
_audit_author_name                 Salvador R. G. Balestra
_symmetry_space_group_name_H-M     'P 1             '
_symmetry_Int_Tables_number        1

loop_
_symmetry_equiv_pos_site_id
_symmetry_equiv_pos_as_xyz
_cell_length_a                       17.0600
_cell_length_b                        7.5842
_cell_length_c                       10.3250
_cell_angle_alpha                   90.6892
_cell_angle_beta                    89.2815
_cell_angle_gamma                   89.8604

loop_
_atom_site_label
_atom_site_type_symbol
_atom_site_fract_x
_atom_site_fract_y
_atom_site_fract_z
_atom_site_charge
  Ge     Ge        0.556730000000016    0.000000000000000    0.122129999999970  0.0000
  Ge     Ge        0.338694876817562    0.724174745545136    0.290586722929325  0.0000
  Ge     Ge        0.357908578628633    0.302662163661072    0.294400554230321  0.0000
  Ge     Ge        0.654074588412117    0.326277477804324    0.040271575663847  0.0000
  Si     Si        0.052366784838180    0.978723244288176    0.376081093602816  0.0000
  Si     Si        0.459255988488830    0.996139731357894    0.384651538235826  0.0000
  Si     Si        0.960684923556151    0.973654777905465    0.643577696549430  0.0000
  Si     Si        0.561486833140595    0.989972351648251    0.633010698518818  0.0000
  Si     Si        0.950515723418140    0.987279875052472    0.126637649792908  0.0000
  Si     Si        0.450891551154839    0.981143819401766    0.874706284436009  0.0000
  Si     Si        0.066960106891998    0.974797322017419    0.891139554549823  0.0000
  Si     Si        0.172881663732856    0.262734772530601    0.290014963609815  0.0000
  Si     Si        0.841463477651492    0.264076688032217    0.733919370184534  0.0000
  Si     Si        0.677579660845874    0.704348809081770    0.729186404481777  0.0000
  Si     Si        0.857281856878221    0.667722821340327    0.727112682359037  0.0000
  Si     Si        0.662227467458214    0.296624977619510    0.733104409643655  0.0000
  Si     Si        0.155502800757626    0.668199415708482    0.288491542838068  0.0000
  Si     Si        0.858983158690390    0.669283161260950    0.028459475953696  0.0000
  Si     Si        0.359151414666095    0.296806166477227    0.988819096659604  0.0000
  Si     Si        0.159893122340164    0.658206046418930    0.984872357229072  0.0000
  Si     Si        0.340091530723772    0.703040683566155    0.983543422284138  0.0000
  Si     Si        0.178239566268511    0.260545501529848    0.986083564997132  0.0000
  Si     Si        0.678742660576736    0.728131945536941    0.030949379302918  0.0000
  Si     Si        0.837527079576344    0.275173656401548    0.037874102355134  0.0000
  O2     O2        0.119834570638931    0.126864757764924    0.369446740080415  0.0000
  O3     O3        0.383570561056345    0.871198504453050    0.393206071806869  0.0000
  O2     O2        0.894794553734820    0.125082712087219    0.655857738769063  0.0000
  O2     O2        0.624937546656638    0.833494187744129    0.644446818514618  0.0000
  O2     O2        0.918116807656644    0.783456433469078    0.644178074731235  0.0000
  O2     O2        0.603564066119630    0.179221017010822    0.646801860496173  0.0000
  O2     O2        0.090689296166919    0.784522502977126    0.364823579294562  0.0000
  O3     O3        0.426712737480391    0.193794275525859    0.384351470022773  0.0000
  O2     O2        0.007099006265721    0.997499462753149    0.510844863158466  0.0000
  O2     O2        0.525092137474376    0.973389212253029    0.491628859222350  0.0000
  O2     O2        0.990614664956263    0.009318967334264    0.263724792655322  0.0000
  O3     O3        0.499608158272294    0.937463518552632    0.248971978398022  0.0000
  O2     O2        0.023225674394836    0.991822824767900    0.757073019925037  0.0000
  O2     O2        0.489097650143411    0.971101687788534    0.732577296637574  0.0000
  O1     O1        0.584807282339088    0.216005998464669    0.128116354228777  0.0000
  O2     O2        0.915730684047079    0.790531285694345    0.113560747981656  0.0000
  O2     O2        0.416945654048000    0.179647520716330    0.897932794816028  0.0000
  O2     O2        0.101359397029354    0.776860593499242    0.901973493016450  0.0000
  O2     O2        0.382786265591983    0.833055391310578    0.883409211625038  0.0000
  O2     O2        0.137633565297037    0.115604685819577    0.895488631514220  0.0000
  O3     O3        0.645117560460622    0.884677308542399    0.116300521032920  0.0000
  O2     O2        0.881725253889732    0.131201266682484    0.121970007461862  0.0000
  O3     O3        0.514082413885921    0.933875180147187    0.979767096391481  0.0000
  O2     O2        0.010704136693340    0.025572196567186    0.010646841160945  0.0000
  O2     O2        0.141432944380738    0.461485353310831    0.315372564675045  0.0000
  O1     O1        0.376548769255207    0.519439388114806    0.315499638554755  0.0000
  O2     O2        0.873411640316776    0.460224723065166    0.704200518897820  0.0000
  O2     O2        0.646523804539781    0.504604217235777    0.711133718907340  0.0000
  O3     O3        0.262118090716521    0.249727819018049    0.334684012405943  0.0000
  O3     O3        0.240846671310448    0.721896185842664    0.334395149860673  0.0000
  O2     O2        0.751381123162898    0.249391606320689    0.689438591456915  0.0000
  O2     O2        0.768682376295096    0.714338716018652    0.685025796319839  0.0000
  O2     O2        0.169645305651062    0.214008123008655    0.137341250236806  0.0000
  O3     O3        0.347729366101250    0.777870163110013    0.128448033092998  0.0000
  O2     O2        0.842414815098810    0.222246754704430    0.886093217126082  0.0000
  O2     O2        0.671477135622628    0.766728078998375    0.877776069724819  0.0000
  O2     O2        0.871011174916573    0.716744194312123    0.877593846371996  0.0000
  O3     O3        0.645940495304299    0.252052160589056    0.881367172260360  0.0000
  O2     O2        0.148467330732522    0.707276314463928    0.135743593403319  0.0000
  O3     O3        0.374873600228877    0.237657061499972    0.134300198258820  0.0000
  O3     O3        0.633536235005942    0.546611814622006    0.058716289356227  0.0000
  O2     O2        0.879473324043299    0.465757936833115    0.055534403196832  0.0000
  O2     O2        0.377416381682762    0.505474196729434    0.975938301101979  0.0000
  O2     O2        0.140572897060712    0.452585642746214    0.959255690108647  0.0000
  O3     O3        0.749010013393479    0.283138167288058    0.086993927152943  0.0000
  O2     O2        0.769160159957292    0.701585714642187    0.068259774408653  0.0000
  O2     O2        0.269831281985780    0.261227872628167    0.948674557778296  0.0000
  O2     O2        0.249347008235748    0.695231409297119    0.943346731446247  0.0000
