data_c01092.vasp
_audit_creation_method             Generated by GULP
_audit_author_name                 Salvador R. G. Balestra
_symmetry_space_group_name_H-M     'P 1             '
_symmetry_Int_Tables_number        1

loop_
_symmetry_equiv_pos_site_id
_symmetry_equiv_pos_as_xyz
_cell_length_a                       16.9499
_cell_length_b                        7.6126
_cell_length_c                       10.3778
_cell_angle_alpha                   89.1095
_cell_angle_beta                    90.3844
_cell_angle_gamma                   90.0739

loop_
_atom_site_label
_atom_site_type_symbol
_atom_site_fract_x
_atom_site_fract_y
_atom_site_fract_z
_atom_site_charge
  Ge     Ge        0.556730000000016    0.000000000000000    0.122129999999970  0.0000
  Ge     Ge        0.849704416722184    0.337116233932039    0.704487246059234  0.0000
  Ge     Ge        0.328114955350726    0.286351450087916    0.974883258894341  0.0000
  Ge     Ge        0.167926857474241    0.741629240062831    0.976538582874166  0.0000
  Si     Si        0.049927221817434    0.009617544282640    0.366285330656519  0.0000
  Si     Si        0.449575450806185    0.996208355937985    0.374327564432343  0.0000
  Si     Si        0.951429494251011    0.030337887777870    0.621533764758102  0.0000
  Si     Si        0.546972364793830    0.007756060496371    0.633616763916157  0.0000
  Si     Si        0.946234375313618    0.003215295544710    0.113314191674703  0.0000
  Si     Si        0.442116005428402    0.007147605330665    0.883466315871912  0.0000
  Si     Si        0.055174372857535    0.025819487966888    0.876164163868042  0.0000
  Si     Si        0.151550932839570    0.322556044847632    0.278097048917152  0.0000
  Si     Si        0.347416551307206    0.687759931305464    0.279942927658095  0.0000
  Si     Si        0.651725015321847    0.701628985805084    0.720907365131091  0.0000
  Si     Si        0.833707954877433    0.744659964829398    0.718129320903775  0.0000
  Si     Si        0.663737741794387    0.297107603788985    0.711654808993013  0.0000
  Si     Si        0.167031243511996    0.726987903892117    0.282098766249608  0.0000
  Si     Si        0.331791176931127    0.282882911925206    0.280543896746091  0.0000
  Si     Si        0.672337045917121    0.282030929691022    0.011659759103195  0.0000
  Si     Si        0.833323881173335    0.720972575730915    0.019482085776941  0.0000
  Si     Si        0.353001184873122    0.684683022165144    0.978634663171135  0.0000
  Si     Si        0.143493276733058    0.342954397831884    0.976616366446344  0.0000
  Si     Si        0.651120190633069    0.680987370160897    0.019688550905917  0.0000
  Si     Si        0.855454951745173    0.323371951015428    0.009528154191453  0.0000
  O2     O2        0.091073767353551    0.201391805681242    0.358602614263369  0.0000
  O2     O2        0.409322288167855    0.804396523178402    0.359214392316018  0.0000
  O3     O3        0.913870248093065    0.221647136573182    0.609999556180691  0.0000
  O2     O2        0.594101667705141    0.823996582147376    0.635882204930655  0.0000
  O2     O2        0.878196282364360    0.895842609308849    0.638088522740840  0.0000
  O2     O2        0.608302449254349    0.170451563273618    0.627476188439805  0.0000
  O2     O2        0.116164076245576    0.857639249128564    0.368796362011946  0.0000
  O2     O2        0.383340758416177    0.147743878001264    0.365717898593613  0.0000
  O2     O2        0.001379132207104    0.988393219210259    0.496406518360449  0.0000
  O2     O2        0.489091429964457    0.009470244634737    0.513204315262980  0.0000
  O2     O2        0.989661051303277    0.983922727477959    0.248945030956623  0.0000
  O3     O3        0.518196571182606    0.023899606892186    0.272065628686529  0.0000
  O2     O2        0.008712464313038    0.010232710023924    0.744004379624445  0.0000
  O2     O2        0.494037749962770    0.027892946214170    0.758347084164805  0.0000
  O3     O3        0.636367112148674    0.139779458632197    0.105985685612146  0.0000
  O2     O2        0.876159141856417    0.859907238297584    0.110877230198971  0.0000
  O3     O3        0.366159356811333    0.131461628099510    0.874903216727281  0.0000
  O3     O3        0.131013092579342    0.901586730679631    0.875365000791150  0.0000
  O2     O2        0.415553511316247    0.804484991689834    0.901840177581342  0.0000
  O2     O2        0.081313134966651    0.227227020345477    0.896736007240534  0.0000
  O3     O3        0.590631393809601    0.787076903637928    0.104523706517894  0.0000
  O2     O2        0.912282123599710    0.200750942205622    0.097634420332478  0.0000
  O3     O3        0.489621977007447    0.070286571551675    0.008403050677969  0.0000
  O2     O2        0.004906564881477    0.954433150148895    0.997994554753359  0.0000
  O2     O2        0.133643503270852    0.528472159636403    0.299232723537474  0.0000
  O2     O2        0.365335023753295    0.480570764510496    0.299145381889085  0.0000
  O3     O3        0.868416722034789    0.557378217594516    0.682366437413896  0.0000
  O2     O2        0.633646631740733    0.497880083277656    0.693782604076202  0.0000
  O2     O2        0.240436700516224    0.277860274729370    0.324646859045133  0.0000
  O2     O2        0.258789679354894    0.729946083569829    0.326190228237875  0.0000
  O3     O3        0.753223829926030    0.287399413624336    0.665723053643073  0.0000
  O2     O2        0.741170920840990    0.747071940453954    0.681113971940138  0.0000
  O2     O2        0.142346407694586    0.281333180188832    0.127082158524183  0.0000
  O2     O2        0.356823375747464    0.738084022083372    0.129565959424515  0.0000
  O3     O3        0.871204284075462    0.278147631127316    0.862296264896321  0.0000
  O2     O2        0.638096253548870    0.743218975470344    0.871051259261009  0.0000
  O2     O2        0.842483734651975    0.779507970110562    0.870511747590760  0.0000
  O2     O2        0.659403910809312    0.235204566328326    0.861345068179170  0.0000
  O3     O3        0.162021443722909    0.796771326702666    0.136418732556716  0.0000
  O3     O3        0.335899803482691    0.221756500650376    0.134399856827627  0.0000
  O2     O2        0.634466523810180    0.473663335194960    0.036244239186567  0.0000
  O2     O2        0.872592519189786    0.528339737143275    0.038496401986428  0.0000
  O3     O3        0.376825753794261    0.485169811044299    0.959235062268779  0.0000
  O3     O3        0.119274256202122    0.543430297983495    0.958699246633170  0.0000
  O2     O2        0.764987140426742    0.285235701565162    0.042495240218843  0.0000
  O2     O2        0.741828473747281    0.719280141414440    0.059182580656157  0.0000
  O3     O3        0.231595636071235    0.313861057846472    0.927533804864233  0.0000
  O3     O3        0.264509079351555    0.716796855477927    0.930456662369221  0.0000
