data_c01022.vasp
_audit_creation_method             Generated by GULP
_audit_author_name                 Salvador R. G. Balestra
_symmetry_space_group_name_H-M     'P 1             '
_symmetry_Int_Tables_number        1

loop_
_symmetry_equiv_pos_site_id
_symmetry_equiv_pos_as_xyz
_cell_length_a                       17.1043
_cell_length_b                        7.6263
_cell_length_c                       10.2904
_cell_angle_alpha                   89.1616
_cell_angle_beta                    89.6757
_cell_angle_gamma                   89.6425

loop_
_atom_site_label
_atom_site_type_symbol
_atom_site_fract_x
_atom_site_fract_y
_atom_site_fract_z
_atom_site_charge
  Ge     Ge        0.556730000000016    0.000000000000000    0.122129999999970  0.0000
  Ge     Ge        0.330256746166666    0.710520425538925    0.296151052433787  0.0000
  Ge     Ge        0.649262977932455    0.324535968007701    0.727018193627535  0.0000
  Ge     Ge        0.169278922916043    0.277378827725036    0.974514022014410  0.0000
  Si     Si        0.044564968505151    0.984931236458974    0.370394842613940  0.0000
  Si     Si        0.446923420188900    0.993795082857332    0.378292488712253  0.0000
  Si     Si        0.947385610652439    0.994885417658858    0.632213220555071  0.0000
  Si     Si        0.545641998811560    0.021836388178634    0.632253003086556  0.0000
  Si     Si        0.946037930440285    0.992668969887830    0.115536673126937  0.0000
  Si     Si        0.444798503227142    0.000693776524832    0.882388468786865  0.0000
  Si     Si        0.058646100467559    0.994518913829981    0.877578379235646  0.0000
  Si     Si        0.162290580501246    0.270661969851351    0.283165630344315  0.0000
  Si     Si        0.832292917614662    0.289578259511369    0.715498549686151  0.0000
  Si     Si        0.663810340775322    0.735791359236694    0.736001428015868  0.0000
  Si     Si        0.843463661921210    0.690787727230209    0.719523911739993  0.0000
  Si     Si        0.147061613184455    0.676857650604405    0.284413936681086  0.0000
  Si     Si        0.341944254016279    0.302252150232451    0.293789783609772  0.0000
  Si     Si        0.652513053580334    0.319748758348742    0.034158514490452  0.0000
  Si     Si        0.853156649552435    0.676588412083031    0.022434450954306  0.0000
  Si     Si        0.351190468411671    0.316130873497975    0.988129157276012  0.0000
  Si     Si        0.152460672125093    0.680414172377003    0.981532415636587  0.0000
  Si     Si        0.334031019024667    0.715574152544255    0.987385511373306  0.0000
  Si     Si        0.673843013805833    0.719363620068709    0.037407053431818  0.0000
  Si     Si        0.832828091875531    0.281671020010557    0.021251567716871  0.0000
  O2     O2        0.110495276516221    0.135148890580851    0.366912869774317  0.0000
  O3     O3        0.383616939923806    0.841817701658686    0.395549564383740  0.0000
  O2     O2        0.887888385885548    0.159283410633505    0.635863343563533  0.0000
  O2     O2        0.615720992943171    0.883226220412945    0.657783165983667  0.0000
  O2     O2        0.898868440098280    0.814660813814232    0.632846148184657  0.0000
  O3     O3        0.582295330344744    0.213259303311258    0.636378442146712  0.0000
  O2     O2        0.084054070068927    0.792142261647687    0.363189585084457  0.0000
  O2     O2        0.400035326173339    0.178212970716186    0.375512661900480  0.0000
  O2     O2        0.998413321159264    0.004305965200140    0.503488366338435  0.0000
  O2     O2        0.510825448201386    0.990598119705609    0.490759812433608  0.0000
  O2     O2        0.982789984262229    0.012773307171972    0.255860112897993  0.0000
  O3     O3        0.491736724666767    0.962271581524438    0.244150481585552  0.0000
  O2     O2        0.005393481565853    0.999938135515247    0.752575435843005  0.0000
  O2     O2        0.474950862187419    0.999438135574237    0.734795653261933  0.0000
  O3     O3        0.595468003622947    0.208831820631410    0.126423769901580  0.0000
  O2     O2        0.914443585178677    0.794603137441047    0.099520460536983  0.0000
  O2     O2        0.416081891693791    0.197818094284159    0.917053471283143  0.0000
  O2     O2        0.098813876309028    0.803859110829555    0.891649842278304  0.0000
  O2     O2        0.375228658430185    0.858919169693766    0.894604069965193  0.0000
  O3     O3        0.125308979382029    0.139255196614649    0.868116902415586  0.0000
  O3     O3        0.633146940689086    0.850139879878769    0.134139465839999  0.0000
  O2     O2        0.875519684743723    0.131889955861569    0.104621347890156  0.0000
  O3     O3        0.513413727368771    0.946387586179901    0.977665104056882  0.0000
  O2     O2        0.009364902625155    0.042563894144065    0.006178304451624  0.0000
  O2     O2        0.130130582550027    0.469114545534345    0.300662392529125  0.0000
  O3     O3        0.363377548760325    0.499403140038780    0.322677467059713  0.0000
  O2     O2        0.861436285761648    0.488374536469075    0.688287546926186  0.0000
  O3     O3        0.629217225006203    0.545686679140103    0.711088543190092  0.0000
  O2     O2        0.251930741654383    0.261561373852924    0.332611342508822  0.0000
  O3     O3        0.232446155408929    0.719744846911734    0.336012748304587  0.0000
  O3     O3        0.742944356796332    0.276171738614444    0.673663644792610  0.0000
  O2     O2        0.753693084747158    0.736331179910601    0.686320749746798  0.0000
  O3     O3        0.159992821995409    0.212535655837857    0.134731073187342  0.0000
  O3     O3        0.341844696992358    0.773679442281962    0.135359187370124  0.0000
  O2     O2        0.837411654861464    0.240889060343063    0.868499366969246  0.0000
  O2     O2        0.662809968505837    0.783286666767334    0.888091205116627  0.0000
  O2     O2        0.860767710697920    0.726908654129720    0.870496627689084  0.0000
  O3     O3        0.636814646766161    0.261081878051128    0.887328762882754  0.0000
  O2     O2        0.140790794591140    0.730627820934491    0.132426638203840  0.0000
  O2     O2        0.352508379564242    0.264807775723807    0.140582957546525  0.0000
  O2     O2        0.636193779629058    0.525944387487474    0.051894480603439  0.0000
  O2     O2        0.872497619254217    0.470860772422250    0.046710213038959  0.0000
  O2     O2        0.372628278159658    0.522090594213509    0.970034192384425  0.0000
  O3     O3        0.128589350722768    0.483611563342889    0.956285071361482  0.0000
  O2     O2        0.743211417277348    0.281115008995600    0.067471572899628  0.0000
  O2     O2        0.765559240319938    0.713579907708408    0.071671151674061  0.0000
  O3     O3        0.266777060339737    0.280204160690988    0.931101213589628  0.0000
  O2     O2        0.243622432940997    0.706645224349047    0.946165278438347  0.0000
