data_c01027.vasp
_audit_creation_method             Generated by GULP
_audit_author_name                 Salvador R. G. Balestra
_symmetry_space_group_name_H-M     'P 1             '
_symmetry_Int_Tables_number        1

loop_
_symmetry_equiv_pos_site_id
_symmetry_equiv_pos_as_xyz
_cell_length_a                       17.0993
_cell_length_b                        7.6119
_cell_length_c                       10.2380
_cell_angle_alpha                   89.5625
_cell_angle_beta                    89.1895
_cell_angle_gamma                   90.5675

loop_
_atom_site_label
_atom_site_type_symbol
_atom_site_fract_x
_atom_site_fract_y
_atom_site_fract_z
_atom_site_charge
  Ge     Ge        0.556730000000016    0.000000000000000    0.122129999999970  0.0000
  Ge     Ge        0.336615492850465    0.745549469940246    0.298648484139359  0.0000
  Ge     Ge        0.355464369567088    0.324174954106194    0.297376601631879  0.0000
  Ge     Ge        0.358750240648423    0.337180618876816    0.982021345457320  0.0000
  Si     Si        0.051438714711235    0.993848179979325    0.383109181992729  0.0000
  Si     Si        0.456743811080416    0.018910699273113    0.387539042210869  0.0000
  Si     Si        0.958785164312689    0.003454535435351    0.649828403647716  0.0000
  Si     Si        0.561083088102322    0.007341666734901    0.632710660899559  0.0000
  Si     Si        0.946607340397755    0.999246203267864    0.139159462989891  0.0000
  Si     Si        0.450123675218048    0.020336601105951    0.872908181154912  0.0000
  Si     Si        0.063077551156002    0.006746892007540    0.902655524747556  0.0000
  Si     Si        0.173028785211049    0.286703233430222    0.290255233483872  0.0000
  Si     Si        0.842889235890332    0.290061819041243    0.732618407637924  0.0000
  Si     Si        0.673922114680268    0.719062096180331    0.734597877610008  0.0000
  Si     Si        0.853982006362442    0.693092829839636    0.730933815457746  0.0000
  Si     Si        0.662413139021616    0.312647518569614    0.735172108916471  0.0000
  Si     Si        0.153630395622762    0.687900668097549    0.295773060824027  0.0000
  Si     Si        0.657298373811365    0.318774535943847    0.038023536275300  0.0000
  Si     Si        0.854766230709531    0.683790677843173    0.035880284365564  0.0000
  Si     Si        0.157402052759912    0.691043350869519    0.990427961971687  0.0000
  Si     Si        0.337431433874110    0.746876041329533    0.989867244356998  0.0000
  Si     Si        0.177479046831711    0.298871045523618    0.980936488033800  0.0000
  Si     Si        0.674803817565280    0.718681117414599    0.038058336104279  0.0000
  Si     Si        0.838172798101376    0.286452991678631    0.037510751840093  0.0000
  O2     O2        0.117578589415668    0.141653157773799    0.357739698327845  0.0000
  O3     O3        0.383236595492819    0.886641517166346    0.403266740502752  0.0000
  O2     O2        0.894909384317627    0.158319620769467    0.647691354489578  0.0000
  O2     O2        0.621657842189804    0.848301421487125    0.648882599801900  0.0000
  O2     O2        0.913308958706147    0.816403068854976    0.648173727016641  0.0000
  O2     O2        0.605466603445158    0.193933837298454    0.648645813664260  0.0000
  O2     O2        0.089506550017721    0.801165878414482    0.373980559464455  0.0000
  O3     O3        0.422619008838204    0.213018035357538    0.391144673045565  0.0000
  O2     O2        0.015382794110634    0.020018484235061    0.525793794239087  0.0000
  O2     O2        0.527044134722087    0.996891634277049    0.488187896005858  0.0000
  O2     O2        0.981296963853361    0.013381844797840    0.282163359654810  0.0000
  O3     O3        0.492141825083072    0.966541046645549    0.246564752777987  0.0000
  O2     O2        0.011879524148135    0.024110250514781    0.775636333542107  0.0000
  O2     O2        0.486834333638756    0.990376633634621    0.729632227663309  0.0000
  O3     O3        0.597470725430709    0.209361321511773    0.126423376143417  0.0000
  O2     O2        0.912219255625863    0.803427613676438    0.120130584086085  0.0000
  O3     O3        0.424993166021786    0.221417217260592    0.888027805289554  0.0000
  O2     O2        0.101082301799166    0.813584593386451    0.906063628351571  0.0000
  O2     O2        0.373810284818053    0.893914012161821    0.892213586630199  0.0000
  O2     O2        0.130644337291807    0.154755027918318    0.899453089841551  0.0000
  O3     O3        0.631894366829044    0.850317705499873    0.131640176865806  0.0000
  O2     O2        0.878961195795371    0.143339322316946    0.127702268853474  0.0000
  O3     O3        0.512349167216608    0.957927619202740    0.977168406933047  0.0000
  O2     O2        0.012716225713185    0.043597375099928    0.032076298205440  0.0000
  O2     O2        0.137461701883420    0.479800308180601    0.316931323092212  0.0000
  O1     O1        0.375654217492684    0.541568228674128    0.313659826955218  0.0000
  O2     O2        0.870747743150707    0.489325055330539    0.700926673578001  0.0000
  O2     O2        0.645954990394514    0.518513783957735    0.710045297056276  0.0000
  O3     O3        0.259671135634044    0.276759875552640    0.346113907606358  0.0000
  O3     O3        0.239067196343212    0.734639099401006    0.345148395343743  0.0000
  O2     O2        0.751815051466031    0.268564023187668    0.696675978332274  0.0000
  O2     O2        0.765040797133797    0.739246993697974    0.693282320285998  0.0000
  O2     O2        0.182064466062660    0.252677318596956    0.135073591732314  0.0000
  O3     O3        0.342123899336453    0.814975692300360    0.137336208418408  0.0000
  O2     O2        0.852227601482979    0.243072234592890    0.885307349600234  0.0000
  O2     O2        0.664567088703142    0.771754842646521    0.885855612199865  0.0000
  O2     O2        0.868264183703790    0.729973741119961    0.883468468113241  0.0000
  O2     O2        0.644647408731958    0.264824371132848    0.886601500724392  0.0000
  O2     O2        0.146635268493801    0.737421343861165    0.142669766769681  0.0000
  O1     O1        0.370120885340235    0.261853686128314    0.138181726141295  0.0000
  O2     O2        0.639376760834050    0.523107058363667    0.058915735794391  0.0000
  O2     O2        0.873389771803247    0.480177059713196    0.065651416955917  0.0000
  O3     O3        0.379806605517837    0.560256784392485    0.977758546430544  0.0000
  O2     O2        0.135557405779272    0.487950809628649    0.963283413294911  0.0000
  O2     O2        0.746673512669768    0.278432392151908    0.073934244853037  0.0000
  O2     O2        0.765723712413118    0.722405781196151    0.074983516900208  0.0000
  O3     O3        0.264983424177092    0.305462378655017    0.926023793208963  0.0000
  O2     O2        0.247324124369719    0.721671197955642    0.948942313417015  0.0000
