data_c01035.vasp
_audit_creation_method             Generated by GULP
_audit_author_name                 Salvador R. G. Balestra
_symmetry_space_group_name_H-M     'P 1             '
_symmetry_Int_Tables_number        1

loop_
_symmetry_equiv_pos_site_id
_symmetry_equiv_pos_as_xyz
_cell_length_a                       16.9722
_cell_length_b                        7.6070
_cell_length_c                       10.3438
_cell_angle_alpha                   90.2663
_cell_angle_beta                    89.3394
_cell_angle_gamma                   89.3324

loop_
_atom_site_label
_atom_site_type_symbol
_atom_site_fract_x
_atom_site_fract_y
_atom_site_fract_z
_atom_site_charge
  Ge     Ge        0.556730000000016    0.000000000000000    0.122129999999970  0.0000
  Ge     Ge        0.342152672596183    0.688353749141827    0.294876522234067  0.0000
  Ge     Ge        0.647761027708882    0.333934794254755    0.043508413737438  0.0000
  Ge     Ge        0.834740643092034    0.268774059083656    0.043307361453248  0.0000
  Si     Si        0.055032572552647    0.964062433977526    0.380667851800531  0.0000
  Si     Si        0.458390671161737    0.969933802690584    0.381932581294552  0.0000
  Si     Si        0.957912389443692    0.967930933480692    0.642196018850011  0.0000
  Si     Si        0.558272292406337    0.992030266223483    0.634939733599484  0.0000
  Si     Si        0.947733417726788    0.978928548494242    0.132772876806729  0.0000
  Si     Si        0.448424739662326    0.973045432603388    0.877319325776099  0.0000
  Si     Si        0.060371066293626    0.978044559530203    0.894284785851916  0.0000
  Si     Si        0.170708427576447    0.250408304380622    0.288340639130408  0.0000
  Si     Si        0.839186495719642    0.257742970376712    0.735346844882131  0.0000
  Si     Si        0.675016842921006    0.703005360747064    0.725422317303611  0.0000
  Si     Si        0.855595816649856    0.663292153780408    0.726618256656297  0.0000
  Si     Si        0.659050111959682    0.298872629831934    0.734912848062168  0.0000
  Si     Si        0.157259086261097    0.653363464744573    0.298543687353337  0.0000
  Si     Si        0.353934378569317    0.276079419047025    0.285776136515747  0.0000
  Si     Si        0.859066722117969    0.663404984034686    0.024975120980516  0.0000
  Si     Si        0.354011464724169    0.288642308438845    0.986242699099725  0.0000
  Si     Si        0.156989843719323    0.661173021137155    0.995285797165751  0.0000
  Si     Si        0.339050046617412    0.693343911721270    0.987958212421351  0.0000
  Si     Si        0.171541216442496    0.262067157131859    0.987003924847266  0.0000
  Si     Si        0.676668616938328    0.727866486968358    0.026198724240216  0.0000
  O2     O2        0.122597873561295    0.111709940937706    0.372801093118565  0.0000
  O3     O3        0.395374138775030    0.816938583180347    0.398295974477609  0.0000
  O2     O2        0.892295920326647    0.121987570978932    0.651984903146349  0.0000
  O2     O2        0.623185273868035    0.835681994340075    0.640283311017844  0.0000
  O2     O2        0.915768402138657    0.777908352909368    0.641184256173964  0.0000
  O2     O2        0.599087677087777    0.180211342782396    0.653473948330499  0.0000
  O2     O2        0.095466033388388    0.770990922406205    0.381282619457695  0.0000
  O2     O2        0.411117710850728    0.153924000817024    0.368528324808377  0.0000
  O2     O2        0.004910687837596    0.992224831356262    0.509675248070308  0.0000
  O2     O2        0.520830866999233    0.987912607443494    0.494469829786130  0.0000
  O2     O2        0.998403893132369    0.983461614406822    0.260186334621362  0.0000
  O3     O3        0.506986830527021    0.922537625484035    0.252815017300404  0.0000
  O2     O2        0.020541297588094    0.982153791252010    0.756169578078339  0.0000
  O2     O2        0.486999615863663    0.962999704670679    0.735758343318929  0.0000
  O1     O1        0.577210276551429    0.218392659355685    0.126177204707975  0.0000
  O2     O2        0.911159172856403    0.786308749829177    0.114937879967109  0.0000
  O2     O2        0.411732294499363    0.169813524383689    0.897639120251578  0.0000
  O2     O2        0.097354966330531    0.784362612256740    0.917143936066381  0.0000
  O2     O2        0.380948404465550    0.825128649065001    0.888832282062807  0.0000
  O2     O2        0.128397975219149    0.124544925703935    0.895292090790573  0.0000
  O3     O3        0.648216160633849    0.892208834281528    0.108204162667213  0.0000
  O3     O3        0.878865912397139    0.120716937535376    0.144774047198380  0.0000
  O3     O3        0.511973109807865    0.929508343587663    0.983181552240143  0.0000
  O2     O2        0.998588485725153    0.031556310407525    0.006287076181531  0.0000
  O2     O2        0.140771005942741    0.447375645521300    0.322679658461540  0.0000
  O3     O3        0.374111589967189    0.474653830550543    0.314138667404273  0.0000
  O2     O2        0.872296648473625    0.454802892252559    0.712903244884254  0.0000
  O2     O2        0.642019871080784    0.505830450257612    0.708827149102716  0.0000
  O2     O2        0.263154219384593    0.233130907748666    0.320682921600442  0.0000
  O3     O3        0.244476489496774    0.700301450213267    0.340169945300158  0.0000
  O2     O2        0.748390480051785    0.251800798419082    0.689479456328313  0.0000
  O2     O2        0.766655447037224    0.707230669622762    0.681360055843272  0.0000
  O2     O2        0.158976871632635    0.209924109999671    0.136699465819452  0.0000
  O3     O3        0.352282494842295    0.752017370831356    0.135140198399295  0.0000
  O3     O3        0.839511774662297    0.201583107473734    0.883489082112987  0.0000
  O2     O2        0.669648969320665    0.766569889669912    0.873195389200488  0.0000
  O2     O2        0.869327060512918    0.720730615315556    0.875185554334695  0.0000
  O3     O3        0.645753224470080    0.259469387687771    0.884390935456713  0.0000
  O2     O2        0.146510103610515    0.698974752923938    0.147431095405299  0.0000
  O2     O2        0.370530313388483    0.232250207796414    0.134023573478160  0.0000
  O3     O3        0.626047750368352    0.554730489123877    0.057181999573078  0.0000
  O3     O3        0.884880167272901    0.465941689301263    0.049036655348254  0.0000
  O2     O2        0.373001525310838    0.494317533181367    0.968001390687021  0.0000
  O2     O2        0.137612347416377    0.458421680024516    0.962992246596550  0.0000
  O1     O1        0.740282150337872    0.287299874051265    0.097979277263312  0.0000
  O2     O2        0.766450673666593    0.677274746052719    0.060870959429234  0.0000
  O2     O2        0.263797153846583    0.253470356809665    0.950840071867792  0.0000
  O2     O2        0.246682100218973    0.699962706306898    0.954987738908701  0.0000
