data_c01003.vasp
_audit_creation_method             Generated by GULP
_audit_author_name                 Salvador R. G. Balestra
_symmetry_space_group_name_H-M     'P 1             '
_symmetry_Int_Tables_number        1

loop_
_symmetry_equiv_pos_site_id
_symmetry_equiv_pos_as_xyz
_cell_length_a                       17.0202
_cell_length_b                        7.5947
_cell_length_c                       10.3976
_cell_angle_alpha                   89.8410
_cell_angle_beta                    90.3072
_cell_angle_gamma                   89.8814

loop_
_atom_site_label
_atom_site_type_symbol
_atom_site_fract_x
_atom_site_fract_y
_atom_site_fract_z
_atom_site_charge
  Ge     Ge        0.556730000000016    0.000000000000000    0.122129999999970  0.0000
  Ge     Ge        0.343813493928045    0.675790524346148    0.291528296800165  0.0000
  Ge     Ge        0.644928738290466    0.686338384507647    0.714310711835303  0.0000
  Ge     Ge        0.166301215122080    0.731891779654121    0.974206146588007  0.0000
  Si     Si        0.041923145790604    0.005092179049043    0.360004415756685  0.0000
  Si     Si        0.446351184022084    0.988554504448882    0.373606117552987  0.0000
  Si     Si        0.945458447466910    0.011020936021669    0.620107755583528  0.0000
  Si     Si        0.539588279744316    0.995362612099307    0.631295862774006  0.0000
  Si     Si        0.944651637840491    0.005791161330165    0.103172671575478  0.0000
  Si     Si        0.440489201624461    0.005989493616113    0.885469739201045  0.0000
  Si     Si        0.055555705354045    0.014597375978361    0.866867056545799  0.0000
  Si     Si        0.145265106209461    0.311131504826503    0.268242851782217  0.0000
  Si     Si        0.842375229045436    0.316086720383098    0.708739928388108  0.0000
  Si     Si        0.828651804499603    0.719677708190809    0.704370459076688  0.0000
  Si     Si        0.661321877147260    0.272279840569106    0.723457292131810  0.0000
  Si     Si        0.160925550246938    0.718321979604364    0.280845238856356  0.0000
  Si     Si        0.326137941668367    0.267223623262544    0.275839380277183  0.0000
  Si     Si        0.671648234892082    0.279968851583614    0.020744704217928  0.0000
  Si     Si        0.830487072375051    0.721550722108905    0.006782414830877  0.0000
  Si     Si        0.327214081343383    0.288775484692886    0.975692443451019  0.0000
  Si     Si        0.349533678160358    0.685619794513534    0.983156694294122  0.0000
  Si     Si        0.144759644529237    0.329098628260815    0.971060624805112  0.0000
  Si     Si        0.649511911648879    0.681844700430133    0.017824736071116  0.0000
  Si     Si        0.852411470770801    0.325303466712595    0.007565542338317  0.0000
  O2     O2        0.086333128847965    0.192414080312278    0.351168832781680  0.0000
  O3     O3        0.413545040945597    0.791252923636937    0.376920740156440  0.0000
  O2     O2        0.898236508175305    0.195196763844214    0.621980861354506  0.0000
  O3     O3        0.576315913784139    0.801687246143225    0.625560690487289  0.0000
  O2     O2        0.884087120749576    0.850422497343606    0.625244569395464  0.0000
  O2     O2        0.613084650448753    0.128880871577168    0.642924726339371  0.0000
  O2     O2        0.104247100213759    0.845223736719352    0.362141704517200  0.0000
  O2     O2        0.369610261682941    0.111685856796317    0.352185310875595  0.0000
  O2     O2        0.993777083208208    0.999170247365485    0.490383955577550  0.0000
  O2     O2        0.489332041684423    0.038877162042749    0.505362170253360  0.0000
  O2     O2        0.981653378029904    0.981077377119666    0.242725238225425  0.0000
  O3     O3        0.509954519371199    0.021872308322111    0.264788216221839  0.0000
  O2     O2        0.005211340619368    0.998863086432900    0.738836149574135  0.0000
  O2     O2        0.480318099190402    0.019347110556871    0.748369462460324  0.0000
  O3     O3        0.634526561497426    0.146644637680555    0.119375700871762  0.0000
  O2     O2        0.873235510196359    0.868910250787730    0.090624347465618  0.0000
  O2     O2        0.366784154881172    0.141661601755092    0.886733383110124  0.0000
  O3     O3        0.126864681184634    0.878839677259625    0.866772165978924  0.0000
  O2     O2        0.413367437965236    0.804309284005610    0.908686116403387  0.0000
  O2     O2        0.089653903299080    0.212046993533781    0.879419930636800  0.0000
  O3     O3        0.592438575070780    0.787514203819886    0.110561815122465  0.0000
  O2     O2        0.913514647587213    0.206115719450487    0.087740704897936  0.0000
  O3     O3        0.498385732636210    0.067365808954132    0.996674302704616  0.0000
  O2     O2        0.006953656927327    0.957392536221409    0.993443795779515  0.0000
  O2     O2        0.128447171844418    0.517777863595132    0.288525078254584  0.0000
  O3     O3        0.362533741906842    0.454141704780399    0.311966793191213  0.0000
  O2     O2        0.858217250719977    0.520409448623040    0.678055221054677  0.0000
  O3     O3        0.626711662393596    0.464549257381710    0.698424612420383  0.0000
  O2     O2        0.234075674221093    0.266535952183309    0.312216946419314  0.0000
  O3     O3        0.248586001554765    0.720984385613741    0.337274829345501  0.0000
  O2     O2        0.751970239579504    0.269658192413418    0.678055434968129  0.0000
  O3     O3        0.738749600038306    0.735512966849795    0.662055526869452  0.0000
  O2     O2        0.132969845574955    0.263833721269847    0.118222756268466  0.0000
  O3     O3        0.356571527329426    0.734018846933988    0.132607018905610  0.0000
  O2     O2        0.862245161921489    0.276100790427992    0.857810597601937  0.0000
  O3     O3        0.632875785535658    0.746421962890592    0.872994273175314  0.0000
  O2     O2        0.834286799048546    0.766391430382463    0.855619230485878  0.0000
  O2     O2        0.658043879709141    0.217683423877232    0.873580625154762  0.0000
  O3     O3        0.162432882476852    0.786675040712654    0.134635289645457  0.0000
  O2     O2        0.334397062527526    0.229494726293664    0.124023102143374  0.0000
  O2     O2        0.633565487992801    0.474197881525184    0.033772086335765  0.0000
  O2     O2        0.871210517097849    0.531030334932944    0.031621520862046  0.0000
  O2     O2        0.369260082781628    0.478581732409258    0.960085881602816  0.0000
  O3     O3        0.121371652412759    0.529669474799006    0.953958216706193  0.0000
  O2     O2        0.764219599571933    0.286995608671761    0.051916694616687  0.0000
  O2     O2        0.740623527881866    0.720171362193575    0.051741295885972  0.0000
  O2     O2        0.236333427779216    0.305218425727700    0.934518799936628  0.0000
  O3     O3        0.263485695503483    0.723331760547035    0.930251874096379  0.0000
