data_c01087.vasp
_audit_creation_method             Generated by GULP
_audit_author_name                 Salvador R. G. Balestra
_symmetry_space_group_name_H-M     'P 1             '
_symmetry_Int_Tables_number        1

loop_
_symmetry_equiv_pos_site_id
_symmetry_equiv_pos_as_xyz
_cell_length_a                       16.9250
_cell_length_b                        7.6081
_cell_length_c                       10.4025
_cell_angle_alpha                   89.0898
_cell_angle_beta                    90.2704
_cell_angle_gamma                   90.5520

loop_
_atom_site_label
_atom_site_type_symbol
_atom_site_fract_x
_atom_site_fract_y
_atom_site_fract_z
_atom_site_charge
  Ge     Ge        0.556730000000016    0.000000000000000    0.122129999999970  0.0000
  Ge     Ge        0.845958707577517    0.345887066075435    0.710068189581954  0.0000
  Ge     Ge        0.827469730086232    0.736519029376922    0.028339985876443  0.0000
  Ge     Ge        0.161672037311985    0.736112788226159    0.980755884703314  0.0000
  Si     Si        0.048567993785287    0.016492275623213    0.376217987445566  0.0000
  Si     Si        0.449461111378909    0.008938046709795    0.373431407937591  0.0000
  Si     Si        0.945669094287017    0.038471585050023    0.626223174878246  0.0000
  Si     Si        0.540946031610278    0.013285621280273    0.639274898658027  0.0000
  Si     Si        0.942150638421538    0.018465208035884    0.124747600586951  0.0000
  Si     Si        0.438752605998149    0.021479909631277    0.888202882103510  0.0000
  Si     Si        0.047840829218584    0.019196480655864    0.882926013203634  0.0000
  Si     Si        0.150670829551209    0.325063266761200    0.287729927836635  0.0000
  Si     Si        0.344206930872879    0.700254626927206    0.282936408860692  0.0000
  Si     Si        0.645694743075086    0.704036044633094    0.730300407476114  0.0000
  Si     Si        0.826542773001957    0.757465184022062    0.723951266945503  0.0000
  Si     Si        0.660980744892334    0.301978760758507    0.717025511589856  0.0000
  Si     Si        0.163197643331700    0.731888077300786    0.286271017760412  0.0000
  Si     Si        0.332602551087397    0.297620614201631    0.283724353098247  0.0000
  Si     Si        0.672471268434451    0.282497886810001    0.016449749363571  0.0000
  Si     Si        0.326920393156561    0.300718730675645    0.984135235208493  0.0000
  Si     Si        0.346111469258254    0.697649763844564    0.980814811913817  0.0000
  Si     Si        0.143031725432510    0.331424445946124    0.989938857648299  0.0000
  Si     Si        0.643967674649662    0.673438416780273    0.030779220486876  0.0000
  Si     Si        0.856200921873171    0.337507762112945    0.011776353905158  0.0000
  O2     O2        0.094176072571099    0.204531038299811    0.376931012577494  0.0000
  O2     O2        0.406848910296732    0.819630288650698    0.358057731795785  0.0000
  O3     O3        0.909477305234079    0.231095312686049    0.613751413584844  0.0000
  O2     O2        0.584126899255711    0.826373958882376    0.654325577197847  0.0000
  O2     O2        0.872015407076512    0.902190680693795    0.636736798790037  0.0000
  O2     O2        0.605244305506254    0.170945199211332    0.637121532136657  0.0000
  O2     O2        0.111602870613218    0.858772042898248    0.374028463164979  0.0000
  O2     O2        0.384166212091736    0.161943137676699    0.366356264058866  0.0000
  O2     O2        0.998231758207570    0.993912730564457    0.504359070078744  0.0000
  O2     O2        0.492215511984238    0.014630449119290    0.509058526282781  0.0000
  O2     O2        0.990277338144918    0.005971529934601    0.255803451521660  0.0000
  O3     O3        0.515926679549618    0.039766123866743    0.267792680141519  0.0000
  O2     O2        0.999958805165506    0.020146385631395    0.751987877329538  0.0000
  O2     O2        0.478224246855842    0.043126231749864    0.750761904472010  0.0000
  O3     O3        0.641941765517696    0.126631123621658    0.105610041079022  0.0000
  O3     O3        0.869759376231434    0.883614465994082    0.132034688332273  0.0000
  O2     O2        0.364936426416882    0.154777329607983    0.895054128714723  0.0000
  O3     O3        0.117074809867642    0.879455898983133    0.876214242988996  0.0000
  O2     O2        0.410004186060107    0.819073394180826    0.907152776279358  0.0000
  O2     O2        0.085130927471569    0.212039092329380    0.905707911389546  0.0000
  O3     O3        0.580606784394453    0.780462143267085    0.110046492781991  0.0000
  O2     O2        0.911474395557387    0.216961872494184    0.102830560890836  0.0000
  O3     O3        0.497690159476096    0.076763643901441    0.999724583304384  0.0000
  O2     O2        0.994382998584514    0.955673396057992    0.003882055696446  0.0000
  O2     O2        0.133087185680038    0.530761043347196    0.306902289490553  0.0000
  O2     O2        0.363202177047859    0.495662214970808    0.309988530668047  0.0000
  O3     O3        0.864012561800971    0.568390901200219    0.700550503464777  0.0000
  O2     O2        0.626988463041892    0.499827995715338    0.702679707229773  0.0000
  O2     O2        0.241124218320489    0.282320591990317    0.324609156643039  0.0000
  O2     O2        0.255410400330364    0.744005598812542    0.327270340938504  0.0000
  O3     O3        0.749601650156554    0.300444866226795    0.665383793611684  0.0000
  O2     O2        0.734114302228531    0.750282917544788    0.682625529892972  0.0000
  O2     O2        0.133648895642726    0.275891251905793    0.139859845507050  0.0000
  O2     O2        0.352720818838817    0.743063377879514    0.131721297806880  0.0000
  O3     O3        0.866856169545957    0.278180748833227    0.865953077017287  0.0000
  O2     O2        0.638693123538815    0.740178387906777    0.881919600948517  0.0000
  O3     O3        0.831161664158448    0.812724146883392    0.871424134421454  0.0000
  O2     O2        0.662750569538110    0.237243576812562    0.865768573686963  0.0000
  O3     O3        0.154715906448792    0.794773478182191    0.139674234935017  0.0000
  O2     O2        0.340163095657788    0.249912306737352    0.133885101470675  0.0000
  O2     O2        0.626309036061907    0.464695600239670    0.043025551460296  0.0000
  O3     O3        0.877809054256658    0.539151491438164    0.032724434349189  0.0000
  O2     O2        0.365665345484635    0.492900234611697    0.956844212497767  0.0000
  O3     O3        0.119502645878986    0.530131474466426    0.965435647231399  0.0000
  O2     O2        0.764157113561130    0.314783648247441    0.048478035460271  0.0000
  O3     O3        0.731695853989115    0.714382341529213    0.080510099649916  0.0000
  O2     O2        0.234235964351347    0.305569514234902    0.950720330703158  0.0000
  O3     O3        0.258810266595902    0.736133858837207    0.932919575537893  0.0000
