data_c01098.vasp
_audit_creation_method             Generated by GULP
_audit_author_name                 Salvador R. G. Balestra
_symmetry_space_group_name_H-M     'P 1             '
_symmetry_Int_Tables_number        1

loop_
_symmetry_equiv_pos_site_id
_symmetry_equiv_pos_as_xyz
_cell_length_a                       17.0280
_cell_length_b                        7.5922
_cell_length_c                       10.3367
_cell_angle_alpha                   90.1724
_cell_angle_beta                    91.2944
_cell_angle_gamma                   90.4487

loop_
_atom_site_label
_atom_site_type_symbol
_atom_site_fract_x
_atom_site_fract_y
_atom_site_fract_z
_atom_site_charge
  Ge     Ge        0.556730000000016    0.000000000000000    0.122129999999970  0.0000
  Ge     Ge        0.825391370787070    0.278260453994260    0.696750469742442  0.0000
  Ge     Ge        0.136844023907005    0.653503754543148    0.958380076548130  0.0000
  Ge     Ge        0.161696505346601    0.241925685184171    0.968175946170518  0.0000
  Si     Si        0.047881821731915    0.984251226409021    0.360788510902614  0.0000
  Si     Si        0.445820752869863    0.006856061759199    0.366066262583303  0.0000
  Si     Si        0.942073741445920    0.993408409750097    0.608389588867941  0.0000
  Si     Si        0.536971452892030    0.002960564812921    0.632255537273724  0.0000
  Si     Si        0.945249036224212    0.996608740639777    0.104992374087157  0.0000
  Si     Si        0.437517769968120    0.986393716116888    0.885220649430306  0.0000
  Si     Si        0.046303965023499    0.970492719686173    0.861445737577363  0.0000
  Si     Si        0.163255531377900    0.270389575289201    0.274092330936855  0.0000
  Si     Si        0.327184399823174    0.714461302033324    0.263895732916449  0.0000
  Si     Si        0.656528284356763    0.720798237605535    0.714391178736912  0.0000
  Si     Si        0.838634606932393    0.690291907716861    0.700301290699643  0.0000
  Si     Si        0.642162222381485    0.313742607676728    0.709620718293431  0.0000
  Si     Si        0.147911055803230    0.679807517298738    0.263479450355594  0.0000
  Si     Si        0.342337144872848    0.313329184463140    0.274927903216689  0.0000
  Si     Si        0.651202463674541    0.318468870812049    0.011904020790155  0.0000
  Si     Si        0.850447184104746    0.680417212099741    0.000152183084263  0.0000
  Si     Si        0.344489912777996    0.306856858386579    0.971197358839716  0.0000
  Si     Si        0.321660101172331    0.700635657019916    0.959990167744425  0.0000
  Si     Si        0.669301775677781    0.719559282959321    0.013987946867944  0.0000
  Si     Si        0.831599153126529    0.277817353330908    0.004471275972617  0.0000
  O2     O2        0.111237365551160    0.144213914843652    0.364298187174247  0.0000
  O2     O2        0.380323574664484    0.857030191306802    0.338584626622017  0.0000
  O3     O3        0.880863372658369    0.150642676026264    0.597034832846238  0.0000
  O2     O2        0.605036796282761    0.855337064650592    0.629108158844168  0.0000
  O2     O2        0.891806702343493    0.812800940194571    0.611179822528335  0.0000
  O2     O2        0.576511346466080    0.197223955251916    0.633469546705862  0.0000
  O2     O2        0.090533962819047    0.795751454398013    0.350982326535154  0.0000
  O2     O2        0.405417273660621    0.198253297807366    0.354270951817190  0.0000
  O2     O2        0.002177197000147    0.987368254456037    0.493319568556829  0.0000
  O2     O2        0.479389959262631    0.982615836674908    0.509990664371341  0.0000
  O2     O2        0.985026264337686    0.012045208506460    0.245213422503974  0.0000
  O3     O3        0.518677825704107    0.990381102621902    0.273134598705720  0.0000
  O2     O2        0.992129816383809    0.022525056458383    0.740648201261045  0.0000
  O2     O2        0.485297367877138    0.970561364061365    0.756276180549887  0.0000
  O3     O3        0.591964521274928    0.210602339918804    0.097254940990708  0.0000
  O2     O2        0.910841725563954    0.798511595327297    0.085413328164795  0.0000
  O2     O2        0.408251084621942    0.187348133318069    0.900813369802141  0.0000
  O3     O3        0.067939005299863    0.766338090719668    0.865829567421871  0.0000
  O2     O2        0.364506672365119    0.849536665238714    0.876855399298933  0.0000
  O3     O3        0.127549293979026    0.078492874537320    0.866352401286258  0.0000
  O3     O3        0.633924728961648    0.854480444591236    0.112584644121594  0.0000
  O2     O2        0.877109535180154    0.142203546783094    0.097504006095773  0.0000
  O3     O3        0.488916299213729    0.930270274147449    0.008473740228184  0.0000
  O2     O2        0.007198718649287    0.040113916909775    0.994392118266838  0.0000
  O2     O2        0.131107094196003    0.470513244616487    0.278675494528745  0.0000
  O2     O2        0.361256439241284    0.520399232052098    0.295129176473625  0.0000
  O3     O3        0.856555377778232    0.490905829481160    0.669820831655843  0.0000
  O2     O2        0.625939243614512    0.521463179996571    0.689395100255807  0.0000
  O2     O2        0.254452147135150    0.269971699262523    0.322175452577903  0.0000
  O2     O2        0.237366632145610    0.724053784288682    0.309655726049628  0.0000
  O3     O3        0.726738453758151    0.265169338732318    0.656890986234675  0.0000
  O2     O2        0.747047162424731    0.734999555421774    0.672887366703282  0.0000
  O3     O3        0.158424311514084    0.192390671557879    0.130697550783953  0.0000
  O2     O2        0.325920523866470    0.754389783778027    0.111418707537519  0.0000
  O3     O3        0.837399010794699    0.217662441275599    0.856601337593107  0.0000
  O2     O2        0.650961714518995    0.775241949846805    0.865103094939226  0.0000
  O2     O2        0.860916347450502    0.732608963487496    0.850478262852002  0.0000
  O2     O2        0.638108270050998    0.265986711956819    0.861386364518127  0.0000
  O3     O3        0.131947194497600    0.731157504697619    0.115827985686277  0.0000
  O2     O2        0.349695536228912    0.263793214524286    0.124313980271329  0.0000
  O2     O2        0.634368452741224    0.524092476752657    0.035072229063121  0.0000
  O2     O2        0.869326493800958    0.474161769871601    0.020143194076152  0.0000
  O2     O2        0.364519731221970    0.511871109810832    0.943907586218429  0.0000
  O1     O1        0.113710486149878    0.436978582696954    0.943620862709956  0.0000
  O2     O2        0.741724116571286    0.277280483099116    0.049293128640365  0.0000
  O2     O2        0.762495973340140    0.719168311178441    0.041722947543733  0.0000
  O3     O3        0.257660152630772    0.266921310433817    0.920987213063481  0.0000
  O3     O3        0.232634136644599    0.686461775804510    0.910988094422237  0.0000
