data_c01088.vasp
_audit_creation_method             Generated by GULP
_audit_author_name                 Salvador R. G. Balestra
_symmetry_space_group_name_H-M     'P 1             '
_symmetry_Int_Tables_number        1

loop_
_symmetry_equiv_pos_site_id
_symmetry_equiv_pos_as_xyz
_cell_length_a                       16.9561
_cell_length_b                        7.5921
_cell_length_c                       10.3687
_cell_angle_alpha                   89.4616
_cell_angle_beta                    90.0307
_cell_angle_gamma                   90.5148

loop_
_atom_site_label
_atom_site_type_symbol
_atom_site_fract_x
_atom_site_fract_y
_atom_site_fract_z
_atom_site_charge
  Ge     Ge        0.556730000000016    0.000000000000000    0.122129999999970  0.0000
  Ge     Ge        0.851709472454532    0.346035191174052    0.712012716264808  0.0000
  Ge     Ge        0.826485031615050    0.741901155074284    0.029955207588680  0.0000
  Ge     Ge        0.347306062106218    0.690311038453639    0.970250292604136  0.0000
  Si     Si        0.050579411772429    0.018140375481898    0.374236504530359  0.0000
  Si     Si        0.451838751344231    0.012141238549328    0.374645236411426  0.0000
  Si     Si        0.951661075159032    0.034376363637665    0.629462504440899  0.0000
  Si     Si        0.546700281912193    0.017033636873339    0.636232139078868  0.0000
  Si     Si        0.938323077770667    0.024300494299851    0.129685432674141  0.0000
  Si     Si        0.442177071271237    0.013060474538050    0.883189698194587  0.0000
  Si     Si        0.047239897841318    0.008064855228528    0.890611363513242  0.0000
  Si     Si        0.153943169726388    0.325577542208344    0.289831248608196  0.0000
  Si     Si        0.347422643777541    0.706811878795595    0.275967412755604  0.0000
  Si     Si        0.649355248503320    0.704655954963955    0.724438197476760  0.0000
  Si     Si        0.829630935072036    0.759028593030054    0.724483246429243  0.0000
  Si     Si        0.666784016377725    0.302317430532173    0.709557239873493  0.0000
  Si     Si        0.166097911293182    0.729635360147169    0.280055547470126  0.0000
  Si     Si        0.334936196650687    0.299034408185938    0.280072821449471  0.0000
  Si     Si        0.672394485020479    0.282839859209614    0.010208805229970  0.0000
  Si     Si        0.327587156666034    0.284606497352868    0.979075636504527  0.0000
  Si     Si        0.161995824870908    0.721041606831209    0.977594226325580  0.0000
  Si     Si        0.145587414837613    0.322392740741904    0.989937622321531  0.0000
  Si     Si        0.643652405266225    0.673716546272951    0.025953792696443  0.0000
  Si     Si        0.855709835248567    0.342493652904400    0.014608251289065  0.0000
  O2     O2        0.096536751602526    0.205663189849499    0.377908733118462  0.0000
  O2     O2        0.407833308778347    0.824108198051557    0.358709921705763  0.0000
  O3     O3        0.918174729569639    0.230307841345220    0.620400197422684  0.0000
  O2     O2        0.587958199082207    0.826852128334637    0.647951147121127  0.0000
  O2     O2        0.875821722159227    0.904103048803003    0.638535877178354  0.0000
  O2     O2        0.613158304114172    0.170166879986292    0.625651165608837  0.0000
  O2     O2        0.114029083114962    0.862880202736126    0.361486417274642  0.0000
  O2     O2        0.388788741909659    0.169587332574742    0.363723297310806  0.0000
  O2     O2        0.003033426119602    0.989283701421634    0.505110535134507  0.0000
  O2     O2        0.490650209936203    0.018212706921193    0.513932904133343  0.0000
  O2     O2        0.989595848475704    0.012617868184225    0.257345488633379  0.0000
  O3     O3        0.521739461258740    0.037339330211696    0.273384677739051  0.0000
  O2     O2        0.006902243714376    0.003970810618820    0.752778100217399  0.0000
  O2     O2        0.491766348252804    0.059256651837934    0.757132829328255  0.0000
  O3     O3        0.641269104691631    0.125724519712252    0.097707947985372  0.0000
  O3     O3        0.865802455452949    0.889793737396743    0.137477214115356  0.0000
  O2     O2        0.363094265672524    0.131709541156744    0.891710523479914  0.0000
  O2     O2        0.113655496231555    0.858661736189532    0.892108710675087  0.0000
  O3     O3        0.414324884403141    0.811065302695431    0.881096933821022  0.0000
  O2     O2        0.085465149064551    0.201194666838414    0.911068577208229  0.0000
  O3     O3        0.578962508279296    0.779414743736607    0.104158170758160  0.0000
  O2     O2        0.908132527750964    0.223714462879956    0.110895764741745  0.0000
  O3     O3        0.490766874357273    0.068411193006791    0.008181836721428  0.0000
  O2     O2        0.986189194386122    0.959621321846012    0.003925521982276  0.0000
  O2     O2        0.136451845760009    0.531163407572526    0.312287132909510  0.0000
  O2     O2        0.364845275375348    0.499793056549397    0.297724938333523  0.0000
  O3     O3        0.867932737161547    0.569743661038477    0.702771725034843  0.0000
  O2     O2        0.632205686212279    0.499833095213920    0.694271915258044  0.0000
  O2     O2        0.244313923976768    0.283268362570626    0.326345001443694  0.0000
  O2     O2        0.257880521125739    0.749362374967495    0.318531210215109  0.0000
  O3     O3        0.756337904302730    0.300524563846257    0.662599919322521  0.0000
  O2     O2        0.738058181758724    0.752408434788097    0.679512189053147  0.0000
  O2     O2        0.136962610961289    0.276429775289885    0.141336415493537  0.0000
  O3     O3        0.361801402228273    0.756149184174535    0.127795129459226  0.0000
  O3     O3        0.869890915947970    0.280538144494093    0.869297403779658  0.0000
  O2     O2        0.639843147381611    0.739522582308325    0.876570936706797  0.0000
  O3     O3        0.831256541698298    0.816197782688659    0.872544452048246  0.0000
  O2     O2        0.665227480806177    0.237375577668670    0.858664185099558  0.0000
  O2     O2        0.158906460075658    0.772890419494152    0.128346869771891  0.0000
  O2     O2        0.339947388340634    0.243697230778056    0.131068524752301  0.0000
  O2     O2        0.625211778898645    0.464532543618135    0.036507942010256  0.0000
  O3     O3        0.876878507356239    0.544478299890660    0.036204988854782  0.0000
  O3     O3        0.367431596211099    0.471394516131810    0.947519538600630  0.0000
  O2     O2        0.124414685140614    0.525475493103981    0.961522573515961  0.0000
  O2     O2        0.763048001528144    0.318503476224200    0.045596512482464  0.0000
  O3     O3        0.730111728935249    0.716507347673734    0.078977807243530  0.0000
  O2     O2        0.234920436074632    0.289676132776979    0.946206932275668  0.0000
  O3     O3        0.250665088999391    0.725610192396954    0.928046908529081  0.0000
