data_c01030.vasp
_audit_creation_method             Generated by GULP
_audit_author_name                 Salvador R. G. Balestra
_symmetry_space_group_name_H-M     'P 1             '
_symmetry_Int_Tables_number        1

loop_
_symmetry_equiv_pos_site_id
_symmetry_equiv_pos_as_xyz
_cell_length_a                       17.0416
_cell_length_b                        7.5812
_cell_length_c                       10.3103
_cell_angle_alpha                   89.5974
_cell_angle_beta                    89.1667
_cell_angle_gamma                   89.8727

loop_
_atom_site_label
_atom_site_type_symbol
_atom_site_fract_x
_atom_site_fract_y
_atom_site_fract_z
_atom_site_charge
  Ge     Ge        0.556730000000016    0.000000000000000    0.122129999999970  0.0000
  Ge     Ge        0.336864519538552    0.707539744316871    0.294732872265407  0.0000
  Ge     Ge        0.652545330045279    0.329082029320130    0.036148758210939  0.0000
  Ge     Ge        0.359439639350776    0.317150761062252    0.976772866843334  0.0000
  Si     Si        0.052232084658649    0.974791386012868    0.370274902969047  0.0000
  Si     Si        0.454560048220471    0.985079401050588    0.380830949594033  0.0000
  Si     Si        0.958910309852508    0.981244830106221    0.636011903256780  0.0000
  Si     Si        0.559716085829280    0.997418641086182    0.628011599156013  0.0000
  Si     Si        0.948632104452164    0.987640377864418    0.121439939754821  0.0000
  Si     Si        0.452510216346044    0.997908918629231    0.873049077059898  0.0000
  Si     Si        0.064320363297552    0.990501023019262    0.885201237995401  0.0000
  Si     Si        0.172307866126279    0.260656811333937    0.276414897935308  0.0000
  Si     Si        0.839940046652569    0.269031648947963    0.728036667711390  0.0000
  Si     Si        0.675922187096455    0.710956205372611    0.721759737467019  0.0000
  Si     Si        0.855972398015302    0.672950654166749    0.719232816141456  0.0000
  Si     Si        0.660152339260906    0.302742120121320    0.729174672286084  0.0000
  Si     Si        0.153555517045158    0.663805717130214    0.289179943212700  0.0000
  Si     Si        0.353786127354159    0.292383880347638    0.282138062246918  0.0000
  Si     Si        0.858032166724070    0.670786314420035    0.020662385381153  0.0000
  Si     Si        0.158580855496580    0.674154470633823    0.986161073648637  0.0000
  Si     Si        0.339482062538286    0.726522130165020    0.988422659973592  0.0000
  Si     Si        0.175903320697620    0.277979292415025    0.972191249737165  0.0000
  Si     Si        0.677354659546995    0.731173451692785    0.023497552362050  0.0000
  Si     Si        0.836385890550997    0.276506276637740    0.032367512658890  0.0000
  O2     O2        0.122528349644135    0.115827503430713    0.354954669278321  0.0000
  O3     O3        0.388999536740225    0.835946122687806    0.400280634561881  0.0000
  O2     O2        0.892439628897885    0.131848941378341    0.647811692924462  0.0000
  O2     O2        0.624173697088627    0.841208906814384    0.634019145509931  0.0000
  O2     O2        0.916497662405955    0.790625640828781    0.634946871230908  0.0000
  O2     O2        0.601247998824807    0.186696433958070    0.643982330588674  0.0000
  O2     O2        0.088994733135528    0.777930431190859    0.367851063038370  0.0000
  O2     O2        0.410819128147691    0.173812605315235    0.370300782350708  0.0000
  O2     O2        0.007462549495313    0.007412374396853    0.504416089919892  0.0000
  O2     O2        0.520321402512585    0.994575122573755    0.488878359604204  0.0000
  O2     O2        0.989817441797367    0.001625250194084    0.258005013698308  0.0000
  O3     O3        0.500526158968710    0.932367539720382    0.249880356524707  0.0000
  O2     O2        0.019841217465375    0.997572243187694    0.751312712528381  0.0000
  O2     O2        0.490100365959028    0.965451346814225    0.731978814301252  0.0000
  O1     O1        0.583903786176327    0.216735202771358    0.126249656686726  0.0000
  O2     O2        0.914702400091754    0.790805476061260    0.105342330874840  0.0000
  O3     O3        0.427302575605961    0.201474856151767    0.886116512748456  0.0000
  O2     O2        0.102731703334165    0.797493128050783    0.901282776811897  0.0000
  O2     O2        0.374987699660934    0.875910369306182    0.893106882092379  0.0000
  O2     O2        0.131177967327518    0.140069321431052    0.882804158258487  0.0000
  O3     O3        0.645211265197329    0.885433250153588    0.110973979116115  0.0000
  O2     O2        0.879169824921398    0.130803634611901    0.119389769605802  0.0000
  O3     O3        0.512161049988316    0.937420621634461    0.981363059444854  0.0000
  O2     O2        0.007678350187208    0.036250284887309    0.005012256760346  0.0000
  O2     O2        0.137407211085858    0.454739632349814    0.306530307062203  0.0000
  O3     O3        0.372618987872626    0.495113875463318    0.303155296195971  0.0000
  O2     O2        0.871991840209091    0.465741067445663    0.697229208910500  0.0000
  O2     O2        0.644580491603198    0.511316059920822    0.706209410688228  0.0000
  O2     O2        0.262762676664726    0.252074888012338    0.320357564018892  0.0000
  O3     O3        0.239199116339771    0.707766594379298    0.340048445073588  0.0000
  O2     O2        0.749383552171408    0.255757511794305    0.685767818532494  0.0000
  O2     O2        0.767187416151668    0.720058999798450    0.677818529630810  0.0000
  O2     O2        0.171349236146700    0.219929233331899    0.123319970879282  0.0000
  O3     O3        0.345050652278419    0.785609541916581    0.137160112090317  0.0000
  O2     O2        0.842021782039605    0.224320972341292    0.880752188879628  0.0000
  O2     O2        0.669368009825316    0.773335444745001    0.870021510741373  0.0000
  O2     O2        0.870236001269157    0.720190538753887    0.869333990228310  0.0000
  O3     O3        0.643395432074356    0.256049660860159    0.877855317092440  0.0000
  O2     O2        0.146862813625982    0.717781757989721    0.137824172009795  0.0000
  O3     O3        0.370715121349944    0.239909090967190    0.133789049141701  0.0000
  O3     O3        0.631732810577780    0.549288463698780    0.052202927508083  0.0000
  O2     O2        0.878584719449458    0.466680643937739    0.048783545448285  0.0000
  O3     O3        0.381775795558539    0.538601042920394    0.970186141290761  0.0000
  O2     O2        0.136816856792501    0.471764389619047    0.956681794223715  0.0000
  O3     O3        0.747712844583381    0.285459162010687    0.081276073369065  0.0000
  O2     O2        0.767933715508488    0.702014865384332    0.059565787480605  0.0000
  O3     O3        0.265345743882538    0.282741531518774    0.925368955871710  0.0000
  O2     O2        0.249069241085458    0.704334451505190    0.948209742679229  0.0000
