data_c01062.vasp
_audit_creation_method             Generated by GULP
_audit_author_name                 Salvador R. G. Balestra
_symmetry_space_group_name_H-M     'P 1             '
_symmetry_Int_Tables_number        1

loop_
_symmetry_equiv_pos_site_id
_symmetry_equiv_pos_as_xyz
_cell_length_a                       17.1192
_cell_length_b                        7.6236
_cell_length_c                       10.2418
_cell_angle_alpha                   90.5520
_cell_angle_beta                    90.6286
_cell_angle_gamma                   90.1260

loop_
_atom_site_label
_atom_site_type_symbol
_atom_site_fract_x
_atom_site_fract_y
_atom_site_fract_z
_atom_site_charge
  Ge     Ge        0.556730000000016    0.000000000000000    0.122129999999970  0.0000
  Ge     Ge        0.827797547336472    0.267953654750629    0.694356651333232  0.0000
  Ge     Ge        0.660711514214992    0.721742588456285    0.705009942407755  0.0000
  Ge     Ge        0.144987841739279    0.660273576473469    0.946851157628722  0.0000
  Si     Si        0.048090641768511    0.985459827581362    0.355652861986167  0.0000
  Si     Si        0.443885932233440    0.002659324119526    0.364475054122952  0.0000
  Si     Si        0.947648010560756    0.984996479609508    0.611289939679829  0.0000
  Si     Si        0.539815765443188    0.001276042205789    0.622824367531548  0.0000
  Si     Si        0.940134884893673    0.983904346490731    0.107754368737756  0.0000
  Si     Si        0.441582009599631    0.976949203856565    0.879139941236445  0.0000
  Si     Si        0.048523236474728    0.978191601131394    0.865544736369590  0.0000
  Si     Si        0.160890602705204    0.277181169884227    0.262332108773849  0.0000
  Si     Si        0.330075142887525    0.706159492538520    0.255885063813126  0.0000
  Si     Si        0.845331477669022    0.677919207736227    0.697940719308197  0.0000
  Si     Si        0.644444576328565    0.308867159974186    0.700005731957320  0.0000
  Si     Si        0.151316510601124    0.682346338721329    0.258079669974422  0.0000
  Si     Si        0.340570445792397    0.303862694205566    0.265478958535682  0.0000
  Si     Si        0.650373967367178    0.314532276851782    0.004539301842594  0.0000
  Si     Si        0.848068222778528    0.667455895673859    0.003596951504717  0.0000
  Si     Si        0.343984946514231    0.293678362315010    0.961437848670787  0.0000
  Si     Si        0.327947079778474    0.689015042756695    0.948479812849214  0.0000
  Si     Si        0.163192594253778    0.257289030996318    0.957168611697204  0.0000
  Si     Si        0.668412945189393    0.716391116415380    0.012286254597193  0.0000
  Si     Si        0.829513352858711    0.268180341235213    0.005274381136524  0.0000
  O2     O2        0.108108741341671    0.148546047836904    0.347309532758252  0.0000
  O2     O2        0.385293246879022    0.842495517410227    0.331756274742899  0.0000
  O3     O3        0.880508574562965    0.128608171369187    0.596796892399970  0.0000
  O3     O3        0.607254516766877    0.858014107015725    0.606184535133251  0.0000
  O2     O2        0.906540229198851    0.794901611352089    0.618581406413728  0.0000
  O2     O2        0.580253605165860    0.192971708652631    0.621709509490739  0.0000
  O2     O2        0.094184850628180    0.802572113820442    0.343588812117105  0.0000
  O2     O2        0.398753931967412    0.187291898527573    0.351295967918625  0.0000
  O2     O2        0.008640893132615    0.989712461783191    0.495416112012966  0.0000
  O2     O2        0.472992961602710    0.987094308010639    0.513157092252734  0.0000
  O2     O2        0.979508214626057    0.001122352395067    0.248858908760377  0.0000
  O3     O3        0.520133082995169    0.997794816648968    0.276977452689376  0.0000
  O2     O2        0.995878823954264    0.030563787183438    0.743083893518581  0.0000
  O2     O2        0.500520147606549    0.962477700988734    0.761094483938337  0.0000
  O3     O3        0.591250920334744    0.208248806115063    0.091495414799187  0.0000
  O2     O2        0.906330252761408    0.786583486479947    0.090768224068470  0.0000
  O2     O2        0.401271504259456    0.168963797478993    0.880180982192897  0.0000
  O3     O3        0.077874763826108    0.779343924835735    0.858093261282955  0.0000
  O2     O2        0.376238153403720    0.825353574372203    0.863126315247148  0.0000
  O2     O2        0.125799477038719    0.100552260245603    0.872123504875436  0.0000
  O3     O3        0.630246763133463    0.845708709989131    0.115207268996866  0.0000
  O2     O2        0.872324365845229    0.129680790048908    0.098900199380076  0.0000
  O3     O3        0.485143642222814    0.938171781968548    0.013528538667952  0.0000
  O2     O2        0.002410460540225    0.022535682978442    0.996985031092509  0.0000
  O2     O2        0.132925601673530    0.477369046758185    0.283372138100134  0.0000
  O2     O2        0.359268925907144    0.509422834817204    0.288155317891243  0.0000
  O3     O3        0.862347991521676    0.476819509213015    0.668878502213233  0.0000
  O3     O3        0.626169732758505    0.511234973208923    0.681349594988445  0.0000
  O2     O2        0.251648715747447    0.261282891941867    0.305148296726734  0.0000
  O2     O2        0.240568412461813    0.726683530007999    0.300857669179133  0.0000
  O3     O3        0.730455779233488    0.262267005595364    0.649701188975393  0.0000
  O3     O3        0.757440954692723    0.728530474047431    0.659181575091447  0.0000
  O2     O2        0.153295654009984    0.222007348871268    0.111168023499710  0.0000
  O2     O2        0.331766652255266    0.741690949444802    0.101649645255016  0.0000
  O3     O3        0.836440086521294    0.208202167740628    0.856014627088312  0.0000
  O3     O3        0.654887345345170    0.787134745538597    0.866573244251398  0.0000
  O2     O2        0.857994411007939    0.717613207984326    0.852634312490746  0.0000
  O2     O2        0.640683469296205    0.257837451366175    0.853222773543142  0.0000
  O3     O3        0.136533648360299    0.725377514111746    0.107769262385624  0.0000
  O2     O2        0.355877695716479    0.252922189530108    0.114674906188470  0.0000
  O2     O2        0.632059214188253    0.520763781474425    0.020111410966103  0.0000
  O2     O2        0.867919068706256    0.462290986161171    0.023805326306804  0.0000
  O2     O2        0.365071780355159    0.494823329878500    0.930681766560917  0.0000
  O3     O3        0.123578292752875    0.441148595868487    0.924108887401547  0.0000
  O2     O2        0.739357372563833    0.273803531105658    0.048400394720947  0.0000
  O2     O2        0.760181088430685    0.705953954858643    0.046267056597913  0.0000
  O2     O2        0.254357331815109    0.260127858594689    0.921208812426813  0.0000
  O3     O3        0.239810401451556    0.692488690843893    0.898250172272918  0.0000
