data_c01001.vasp
_audit_creation_method             Generated by GULP
_audit_author_name                 Salvador R. G. Balestra
_symmetry_space_group_name_H-M     'P 1             '
_symmetry_Int_Tables_number        1

loop_
_symmetry_equiv_pos_site_id
_symmetry_equiv_pos_as_xyz
_cell_length_a                       17.1592
_cell_length_b                        7.6211
_cell_length_c                       10.2675
_cell_angle_alpha                   89.5306
_cell_angle_beta                    89.3764
_cell_angle_gamma                   89.7240

loop_
_atom_site_label
_atom_site_type_symbol
_atom_site_fract_x
_atom_site_fract_y
_atom_site_fract_z
_atom_site_charge
  Ge     Ge        0.556730000000016    0.000000000000000    0.122129999999970  0.0000
  Ge     Ge        0.335889652463776    0.725378864682326    0.298289853047327  0.0000
  Ge     Ge        0.670371303604593    0.723363290291567    0.738451554111814  0.0000
  Ge     Ge        0.856310439205695    0.666638960224991    0.044384624029836  0.0000
  Si     Si        0.050155208879060    0.999913287249936    0.381330889425566  0.0000
  Si     Si        0.450448674944331    0.009454214321455    0.382186189630490  0.0000
  Si     Si        0.955578188335912    0.996054621641700    0.646787475969539  0.0000
  Si     Si        0.552108257223511    0.015380756845610    0.633153488794311  0.0000
  Si     Si        0.948807084901871    0.985978781717527    0.133987791439512  0.0000
  Si     Si        0.446281533533057    0.008183320652160    0.879097558864811  0.0000
  Si     Si        0.062328254194069    0.004284899547851    0.894469105267524  0.0000
  Si     Si        0.166294174136796    0.287767269690701    0.290685784882479  0.0000
  Si     Si        0.838604365072070    0.283804149850078    0.731225293365148  0.0000
  Si     Si        0.851663695325152    0.688343438035345    0.731461946131093  0.0000
  Si     Si        0.658589978533788    0.309403227539004    0.734955837595729  0.0000
  Si     Si        0.152590806025691    0.691303872218104    0.291838021431154  0.0000
  Si     Si        0.346641178605144    0.314707990456782    0.296822659188607  0.0000
  Si     Si        0.656462277023044    0.314548299769732    0.034930406216128  0.0000
  Si     Si        0.351554893547446    0.320580270042326    0.992654050784125  0.0000
  Si     Si        0.157558646410817    0.689098605413141    0.986854038747502  0.0000
  Si     Si        0.337759018126139    0.722723892480505    0.987965615494894  0.0000
  Si     Si        0.171795315775345    0.291161247885438    0.986335165359330  0.0000
  Si     Si        0.675498432062132    0.715294987043090    0.046252023216045  0.0000
  Si     Si        0.836113357076997    0.266286210592670    0.036033745551870  0.0000
  O2     O2        0.116058297785104    0.149981242511531    0.374032646667652  0.0000
  O3     O3        0.388351011570389    0.854681861128798    0.400975369718491  0.0000
  O2     O2        0.889857498228175    0.148526536498568    0.647094953955659  0.0000
  O3     O3        0.608328988743429    0.849807676606648    0.647806898399182  0.0000
  O2     O2        0.914692783583511    0.806319526371382    0.652945834076670  0.0000
  O2     O2        0.602714249736202    0.191194428436175    0.648294570863360  0.0000
  O2     O2        0.089437406946723    0.808026143654485    0.368865079529212  0.0000
  O2     O2        0.402615649198208    0.192377116199405    0.382309298521082  0.0000
  O2     O2        0.005917330391499    0.012785618357227    0.516910656520124  0.0000
  O2     O2        0.517170281201484    0.015621855737613    0.488952730678162  0.0000
  O2     O2        0.987050939041882    0.032659212838205    0.269988256147646  0.0000
  O3     O3        0.489715848155970    0.974215306648544    0.242971775636511  0.0000
  O2     O2        0.014881311165106    0.023139228372142    0.763720904455556  0.0000
  O2     O2        0.478821343074479    0.010327882154035    0.732244119369730  0.0000
  O3     O3        0.598451956852135    0.206283336282768    0.125720368701553  0.0000
  O3     O3        0.924066512711424    0.784585451702537    0.129094999284441  0.0000
  O2     O2        0.411011508738734    0.200603635163832    0.911228808792635  0.0000
  O2     O2        0.101396174638556    0.810939468033337    0.900729388494145  0.0000
  O2     O2        0.380680130567617    0.857486307285531    0.890883733826938  0.0000
  O2     O2        0.128847572458475    0.153008339187170    0.895730770281904  0.0000
  O3     O3        0.627536921303407    0.840401949709158    0.140437423822744  0.0000
  O2     O2        0.870936116772488    0.103760912034980    0.116918001499680  0.0000
  O3     O3        0.515345561554566    0.958476147247141    0.973776445949104  0.0000
  O2     O2        0.007096385074894    0.038186715896398    0.017552957998898  0.0000
  O2     O2        0.136933125079820    0.485293079725238    0.319635433867886  0.0000
  O3     O3        0.365846831803894    0.512751146783176    0.326735188146057  0.0000
  O2     O2        0.869160438078913    0.481485096804908    0.707877741564489  0.0000
  O3     O3        0.637926260326586    0.511126433020548    0.718415856013815  0.0000
  O2     O2        0.256534950158875    0.270392110006364    0.330774742321126  0.0000
  O3     O3        0.238090230271895    0.742662187032185    0.335766559859255  0.0000
  O2     O2        0.748171274649296    0.272427878284570    0.690464858061623  0.0000
  O3     O3        0.765748556251918    0.734048769886706    0.682655974567716  0.0000
  O2     O2        0.158670347203636    0.243766341025967    0.138105499035301  0.0000
  O3     O3        0.349729700487034    0.780163150089855    0.135843261598049  0.0000
  O2     O2        0.845124261665286    0.229861557390331    0.882234678238422  0.0000
  O3     O3        0.672662440300383    0.788286053819529    0.898397891139227  0.0000
  O3     O3        0.860654689902998    0.729401900095543    0.883131303173656  0.0000
  O2     O2        0.646172859257120    0.250483307839445    0.885889673764253  0.0000
  O2     O2        0.143005938822961    0.731925906340584    0.138273571711836  0.0000
  O2     O2        0.362803858365157    0.274224018537682    0.144336933473846  0.0000
  O2     O2        0.637605491553983    0.520499585153215    0.044075825672492  0.0000
  O3     O3        0.878394039825890    0.447331682940597    0.067054719862252  0.0000
  O2     O2        0.371279913419759    0.525126096508047    0.967877269231919  0.0000
  O2     O2        0.138421104578222    0.486296474327348    0.957463796878935  0.0000
  O2     O2        0.745559212446305    0.280540283003348    0.076673531917892  0.0000
  O3     O3        0.762636224832414    0.703795583287136    0.098461025607305  0.0000
  O2     O2        0.263248369267968    0.281966248001973    0.950997178267122  0.0000
  O2     O2        0.247003837086253    0.727715689587598    0.951499584925277  0.0000
