data_c01006.vasp
_audit_creation_method             Generated by GULP
_audit_author_name                 Salvador R. G. Balestra
_symmetry_space_group_name_H-M     'P 1             '
_symmetry_Int_Tables_number        1

loop_
_symmetry_equiv_pos_site_id
_symmetry_equiv_pos_as_xyz
_cell_length_a                       17.0491
_cell_length_b                        7.5914
_cell_length_c                       10.3557
_cell_angle_alpha                   89.1557
_cell_angle_beta                    89.9651
_cell_angle_gamma                   90.4857

loop_
_atom_site_label
_atom_site_type_symbol
_atom_site_fract_x
_atom_site_fract_y
_atom_site_fract_z
_atom_site_charge
  Ge     Ge        0.556730000000016    0.000000000000000    0.122129999999970  0.0000
  Ge     Ge        0.347620305882523    0.703655512517220    0.280931401795341  0.0000
  Ge     Ge        0.651031157729153    0.703733662284248    0.705261432255222  0.0000
  Ge     Ge        0.647378944511475    0.675199177771872    0.018906844537403  0.0000
  Si     Si        0.044959735334910    0.018763682652255    0.352672504266100  0.0000
  Si     Si        0.450352474542788    0.013972831292933    0.372361508528154  0.0000
  Si     Si        0.954198382195846    0.031760786321917    0.619045276483661  0.0000
  Si     Si        0.547717059068412    0.015788969627504    0.625160627451104  0.0000
  Si     Si        0.944063030775296    0.021308977389299    0.098670938933350  0.0000
  Si     Si        0.445882805633145    0.034003582302535    0.879239246315307  0.0000
  Si     Si        0.060722126414655    0.033324438312159    0.865432150298205  0.0000
  Si     Si        0.150516197108880    0.328381053004517    0.264371708842394  0.0000
  Si     Si        0.851119189329071    0.336022174332967    0.705164085112674  0.0000
  Si     Si        0.832307433389720    0.738846078663517    0.705883194183266  0.0000
  Si     Si        0.670389019932763    0.289107172875554    0.707340982083283  0.0000
  Si     Si        0.162905441290919    0.734190605992229    0.272706198169176  0.0000
  Si     Si        0.331136577957716    0.291695398129069    0.267869733438588  0.0000
  Si     Si        0.673352793862746    0.273586288785901    0.008081920020724  0.0000
  Si     Si        0.829171955813250    0.730445396853387    0.011715775923647  0.0000
  Si     Si        0.333514294684585    0.315282496879268    0.965806598898159  0.0000
  Si     Si        0.169742679910996    0.747247247250197    0.970482759224328  0.0000
  Si     Si        0.351764070139412    0.715338787722948    0.974717639618852  0.0000
  Si     Si        0.152818365131499    0.348630195213997    0.963708019099678  0.0000
  Si     Si        0.854171607862642    0.340260837663110    0.004503871541433  0.0000
  O2     O2        0.090599021677612    0.205562366351610    0.344477224953826  0.0000
  O3     O3        0.415698443019428    0.817133710701076    0.370086449938561  0.0000
  O2     O2        0.910986284319158    0.220270456374561    0.622430288031909  0.0000
  O3     O3        0.582549708445978    0.821768625725290    0.616878760939452  0.0000
  O2     O2        0.890367638355809    0.877535104142442    0.638235778376907  0.0000
  O2     O2        0.622636237349773    0.148866106575457    0.622238085319773  0.0000
  O2     O2        0.107387691067085    0.860381061996852    0.354154342021261  0.0000
  O2     O2        0.376036563867396    0.140187389060911    0.345918894883970  0.0000
  O2     O2        0.994709171139025    0.010447265498258    0.481881850181592  0.0000
  O2     O2        0.488518382412944    0.056804405340850    0.509299341364561  0.0000
  O2     O2        0.986637269414741    0.993860917817126    0.233662544062214  0.0000
  O3     O3        0.518702669971044    0.047518616594997    0.269726540998242  0.0000
  O2     O2        0.021171569766453    0.016181915212775    0.727057926115463  0.0000
  O2     O2        0.498370120126653    0.048945358211076    0.753549428729420  0.0000
  O3     O3        0.644005468120897    0.115758330775246    0.096964737311512  0.0000
  O2     O2        0.873851251471565    0.880570992854088    0.090005123305645  0.0000
  O2     O2        0.377157891175593    0.180146956305228    0.873514898616662  0.0000
  O2     O2        0.130210766477284    0.891534171801335    0.878061087297228  0.0000
  O2     O2        0.409107655119224    0.836383326565100    0.887092444404242  0.0000
  O2     O2        0.095641869662243    0.231018866532721    0.876702538346483  0.0000
  O1     O1        0.580627919590494    0.783133824914968    0.111943670300884  0.0000
  O2     O2        0.910284483487211    0.219219667454043    0.091994156643648  0.0000
  O3     O3        0.495376235018399    0.079086296750367    0.004078371506343  0.0000
  O2     O2        0.000672203538596    0.985714858551292    0.979113164875001  0.0000
  O2     O2        0.134682011972007    0.532145271862996    0.294706800605056  0.0000
  O3     O3        0.363896047870130    0.481891460008396    0.304093781101871  0.0000
  O2     O2        0.866006556654451    0.543365987976375    0.679928705679077  0.0000
  O3     O3        0.635246244361311    0.480769633052476    0.685345129082802  0.0000
  O2     O2        0.239160130456367    0.280026615057533    0.304184787151403  0.0000
  O3     O3        0.252003872820214    0.752938070349668    0.318678150935411  0.0000
  O2     O2        0.761947192135082    0.288108488123409    0.665907658671749  0.0000
  O3     O3        0.745159068376645    0.753461320180381    0.651207470377824  0.0000
  O2     O2        0.138202135210932    0.293315223518817    0.112621913912549  0.0000
  O3     O3        0.368544425317363    0.762236978897904    0.122251384439433  0.0000
  O2     O2        0.867152324274132    0.288986246970001    0.855297139096805  0.0000
  O1     O1        0.636362419379514    0.752928649712639    0.863545091533443  0.0000
  O2     O2        0.824067102756181    0.774617957098420    0.858809354163798  0.0000
  O2     O2        0.664625657410661    0.227890096109876    0.856761152734655  0.0000
  O2     O2        0.158042663152853    0.789004859110011    0.121357548672704  0.0000
  O2     O2        0.341503927870383    0.257674979920273    0.115435843970433  0.0000
  O3     O3        0.626825620088785    0.453070447434047    0.032862844336381  0.0000
  O2     O2        0.875201982532497    0.544574083372796    0.029268273383272  0.0000
  O2     O2        0.370535852177762    0.511028293029095    0.947698603186371  0.0000
  O2     O2        0.133705511548909    0.554291691922377    0.940284924353553  0.0000
  O2     O2        0.764014215435305    0.310613238490229    0.041976077992380  0.0000
  O3     O3        0.742770309773137    0.716556505156115    0.068150608407161  0.0000
  O2     O2        0.242634356008057    0.314378018160750    0.925322167085686  0.0000
  O2     O2        0.261765335841500    0.752653423426204    0.939348575643705  0.0000
