data_c01076.vasp
_audit_creation_method             Generated by GULP
_audit_author_name                 Salvador R. G. Balestra
_symmetry_space_group_name_H-M     'P 1             '
_symmetry_Int_Tables_number        1

loop_
_symmetry_equiv_pos_site_id
_symmetry_equiv_pos_as_xyz
_cell_length_a                       16.9898
_cell_length_b                        7.6260
_cell_length_c                       10.3312
_cell_angle_alpha                   87.6212
_cell_angle_beta                    89.9236
_cell_angle_gamma                   90.2724

loop_
_atom_site_label
_atom_site_type_symbol
_atom_site_fract_x
_atom_site_fract_y
_atom_site_fract_z
_atom_site_charge
  Ge     Ge        0.556730000000016    0.000000000000000    0.122129999999970  0.0000
  Ge     Ge        0.850413640602881    0.353272721011260    0.696197385032821  0.0000
  Ge     Ge        0.658365105970827    0.304986329087772    0.698738172341229  0.0000
  Ge     Ge        0.144841405912107    0.362706373106927    0.954611317641744  0.0000
  Si     Si        0.043981827700168    0.011967266346613    0.353943785814583  0.0000
  Si     Si        0.443356168087891    0.004105029676245    0.365823362385168  0.0000
  Si     Si        0.949080856052333    0.043456645594197    0.612730295649350  0.0000
  Si     Si        0.539214186327838    0.026647575312804    0.621018989208901  0.0000
  Si     Si        0.936355726072613    0.016450213905649    0.105041718493975  0.0000
  Si     Si        0.443093804734179    0.048261581924451    0.880341917123807  0.0000
  Si     Si        0.049476476359523    0.048377448946166    0.864987141578936  0.0000
  Si     Si        0.148150871077867    0.324021529263880    0.263569757200952  0.0000
  Si     Si        0.340753967026591    0.703640996751550    0.270445160784274  0.0000
  Si     Si        0.645051614885424    0.718028173633481    0.709638141821954  0.0000
  Si     Si        0.826399490118141    0.761660725246829    0.708300914941144  0.0000
  Si     Si        0.159178455392172    0.728585019563084    0.268728366491526  0.0000
  Si     Si        0.328327645259914    0.301821595559352    0.259995463729739  0.0000
  Si     Si        0.664298193044408    0.284592138982652    0.999375901157934  0.0000
  Si     Si        0.826058042041170    0.728375816424736    0.014152446645402  0.0000
  Si     Si        0.328934840600752    0.332976264146180    0.955167632966697  0.0000
  Si     Si        0.162370150179192    0.765063714042749    0.966453856155681  0.0000
  Si     Si        0.345108781651768    0.727610806677324    0.969318060947738  0.0000
  Si     Si        0.644989997963971    0.682104700286902    0.013189703874836  0.0000
  Si     Si        0.850520355329917    0.337885622390551    0.997292382284043  0.0000
  O2     O2        0.089310009650755    0.198485545904104    0.347489792115021  0.0000
  O2     O2        0.398897089968364    0.817178489454129    0.356076871467580  0.0000
  O3     O3        0.917058688782062    0.239921783056534    0.604709999543076  0.0000
  O2     O2        0.584736731574980    0.841743292999360    0.630319545317515  0.0000
  O2     O2        0.872487630522473    0.919280608320304    0.634373326678104  0.0000
  O3     O3        0.602960254923275    0.179452093005533    0.597167199097286  0.0000
  O2     O2        0.106909653505429    0.853808763944088    0.354875282833884  0.0000
  O2     O2        0.382849081229867    0.161227602205940    0.333867152579961  0.0000
  O2     O2        0.994168050792347    0.993737133173590    0.484213902473207  0.0000
  O2     O2        0.473291755345647    0.021060716705190    0.511290435238345  0.0000
  O2     O2        0.983399135087277    0.994229156054564    0.237072494684428  0.0000
  O3     O3        0.519342789587948    0.013810592435863    0.274945092471442  0.0000
  O2     O2        0.009573316135692    0.008451245747313    0.730142348333824  0.0000
  O2     O2        0.496208911891585    0.066290195621732    0.754607509601967  0.0000
  O3     O3        0.637596252593001    0.139283336847733    0.104600445405770  0.0000
  O2     O2        0.869726758342009    0.865823758141621    0.102689687830976  0.0000
  O2     O2        0.377834827752453    0.201104752774309    0.870478458257452  0.0000
  O2     O2        0.127125985002953    0.927832469102073    0.883371263123709  0.0000
  O2     O2        0.401906929135679    0.856158665503332    0.886231042307814  0.0000
  O3     O3        0.077787968978917    0.248303754443819    0.866327616233174  0.0000
  O3     O3        0.585118220647308    0.786333924667290    0.099104963339333  0.0000
  O2     O2        0.895241852551706    0.207342850080535    0.098671875864012  0.0000
  O3     O3        0.490174797178635    0.078671700983586    0.010351106077852  0.0000
  O2     O2        0.992202435920693    0.992895540419302    0.982877629982531  0.0000
  O2     O2        0.130350052702149    0.527519574881496    0.290426015263919  0.0000
  O2     O2        0.358260991963556    0.496901829561010    0.292732740126787  0.0000
  O3     O3        0.856810188361101    0.576482745039313    0.662716035746993  0.0000
  O3     O3        0.632709898821103    0.521886821585468    0.669773473733172  0.0000
  O2     O2        0.237823497239169    0.278302345197455    0.305126614373475  0.0000
  O2     O2        0.250721182157889    0.743619675510281    0.308358240060597  0.0000
  O1     O1        0.756695628993871    0.283404326811807    0.668469456811589  0.0000
  O2     O2        0.734041223140819    0.780981715615867    0.675214510633315  0.0000
  O3     O3        0.134166925379729    0.290050825958986    0.114094414379970  0.0000
  O2     O2        0.358418466818665    0.761980295162491    0.121127124306291  0.0000
  O3     O3        0.882939446515778    0.312771276315066    0.854363916454028  0.0000
  O2     O2        0.630415394614660    0.738257793405480    0.862904601555183  0.0000
  O2     O2        0.837603197370927    0.776974272984272    0.862505298505919  0.0000
  O3     O3        0.635831230909304    0.238836898249121    0.856937660540797  0.0000
  O2     O2        0.150222767975766    0.791808664634369    0.119326120410037  0.0000
  O2     O2        0.330972580143435    0.273382019039983    0.107018709491829  0.0000
  O2     O2        0.630431225402216    0.474680856545412    0.036528965042745  0.0000
  O2     O2        0.862846145918530    0.535568526319594    0.044385654563175  0.0000
  O2     O2        0.366549000040232    0.528338767692660    0.938282325318823  0.0000
  O3     O3        0.122737306025750    0.582477889211679    0.932518898313709  0.0000
  O2     O2        0.758268926920773    0.297703920921280    0.988143762906149  0.0000
  O2     O2        0.734330851716554    0.731665308631205    0.051923878540643  0.0000
  O3     O3        0.240348670952264    0.332485571971505    0.905595668384517  0.0000
  O2     O2        0.254668347804637    0.761300792969453    0.933014459819102  0.0000
