data_c01079.vasp
_audit_creation_method             Generated by GULP
_audit_author_name                 Salvador R. G. Balestra
_symmetry_space_group_name_H-M     'P 1             '
_symmetry_Int_Tables_number        1

loop_
_symmetry_equiv_pos_site_id
_symmetry_equiv_pos_as_xyz
_cell_length_a                       17.0212
_cell_length_b                        7.5952
_cell_length_c                       10.3045
_cell_angle_alpha                   89.6821
_cell_angle_beta                    90.9564
_cell_angle_gamma                   89.0763

loop_
_atom_site_label
_atom_site_type_symbol
_atom_site_fract_x
_atom_site_fract_y
_atom_site_fract_z
_atom_site_charge
  Ge     Ge        0.556730000000016    0.000000000000000    0.122129999999970  0.0000
  Ge     Ge        0.830082449135913    0.257429163560037    0.701922289900303  0.0000
  Ge     Ge        0.647070683957408    0.326254387289070    0.014805609033999  0.0000
  Ge     Ge        0.857182857847326    0.652298207558887    0.008301732704669  0.0000
  Si     Si        0.052750755326268    0.979376995572577    0.361729344485154  0.0000
  Si     Si        0.451720560431218    0.978089160700492    0.369505572575688  0.0000
  Si     Si        0.951305174436830    0.973198971140227    0.614899406635245  0.0000
  Si     Si        0.547409630786112    0.996472405515094    0.630606072510853  0.0000
  Si     Si        0.945328460293827    0.971182434100812    0.114491905747559  0.0000
  Si     Si        0.442884375322915    0.974952113591947    0.879406760278718  0.0000
  Si     Si        0.053024873256910    0.985468100091806    0.873465998542430  0.0000
  Si     Si        0.166217151271080    0.266179373751431    0.267294587485886  0.0000
  Si     Si        0.336589513197017    0.692951099363575    0.265708370152178  0.0000
  Si     Si        0.669575721516247    0.710775061626544    0.706599431765286  0.0000
  Si     Si        0.850634265486199    0.669176469277124    0.703206530084176  0.0000
  Si     Si        0.647912776916000    0.307376712982175    0.705570188895273  0.0000
  Si     Si        0.155783997675347    0.671647392554819    0.265991537895786  0.0000
  Si     Si        0.347283744127012    0.287438876355548    0.267363480107548  0.0000
  Si     Si        0.346417368229736    0.292520266407527    0.965202840652206  0.0000
  Si     Si        0.150783440023816    0.667856421022170    0.963559334744915  0.0000
  Si     Si        0.332142191029257    0.692048489028229    0.962425900280340  0.0000
  Si     Si        0.164807660118928    0.268068234377142    0.964463114758658  0.0000
  Si     Si        0.674128181134517    0.722814158829362    0.010874896892278  0.0000
  Si     Si        0.829863791067558    0.250975156197505    0.010047852353076  0.0000
  O2     O2        0.115365102997248    0.136289121197681    0.353714612908785  0.0000
  O2     O2        0.389358577334196    0.822314030484132    0.350479826346942  0.0000
  O3     O3        0.884314779952981    0.122201791584742    0.603786928557496  0.0000
  O2     O2        0.618572110594803    0.852944014274473    0.623438762065335  0.0000
  O2     O2        0.908386276439341    0.784922932460142    0.615123721411217  0.0000
  O2     O2        0.583123947799442    0.192461345310498    0.627079128177395  0.0000
  O2     O2        0.097658689468863    0.792027539661432    0.348907367715495  0.0000
  O2     O2        0.408072946737304    0.166780399086583    0.348753476156982  0.0000
  O2     O2        0.012471073102885    0.982857249775708    0.499780364444034  0.0000
  O2     O2        0.486089787708349    0.970629504991257    0.514162854752855  0.0000
  O2     O2        0.985626123152400    0.007142707762881    0.252762897521818  0.0000
  O3     O3        0.524000938894398    0.955543972622190    0.274839832925180  0.0000
  O2     O2        0.999845620851512    0.009317549803551    0.746855264611743  0.0000
  O2     O2        0.500048953039204    0.960493110286213    0.760331708607868  0.0000
  O1     O1        0.580336342818110    0.216229781437249    0.104384808491449  0.0000
  O3     O3        0.921460310713991    0.769120265706124    0.104199561453033  0.0000
  O2     O2        0.403964131168081    0.171199864895226    0.881275159067542  0.0000
  O2     O2        0.091866613544570    0.789472708605127    0.877710460825267  0.0000
  O2     O2        0.374858747543175    0.828784107512196    0.869688350017773  0.0000
  O2     O2        0.120865775593061    0.131292952465933    0.872429162295929  0.0000
  O3     O3        0.642883078738324    0.884347530139563    0.092814220642861  0.0000
  O2     O2        0.868367656690213    0.096649478577961    0.099976182632882  0.0000
  O3     O3        0.488669255213784    0.929026718506820    0.010736073549235  0.0000
  O2     O2        0.002873159706164    0.024555419967471    0.999628587184263  0.0000
  O2     O2        0.139583799709065    0.467016734740890    0.295544378619724  0.0000
  O2     O2        0.363908277828748    0.491974656506927    0.295430187109896  0.0000
  O3     O3        0.869461217830427    0.464789262605406    0.688806555970640  0.0000
  O2     O2        0.632058015783011    0.517945673686433    0.688769273610515  0.0000
  O2     O2        0.258241481746670    0.241131046430002    0.304096247831531  0.0000
  O2     O2        0.245504851631744    0.717489927001999    0.303092491070717  0.0000
  O3     O3        0.733067643567021    0.263033535444395    0.650208392271386  0.0000
  O2     O2        0.759551793210421    0.707736997237823    0.658864634867811  0.0000
  O2     O2        0.153991969528634    0.220724742817069    0.115794007822853  0.0000
  O2     O2        0.345508085619164    0.738424681419112    0.113822392173987  0.0000
  O3     O3        0.828154669104849    0.188165487187840    0.861170894521925  0.0000
  O2     O2        0.671460319028271    0.767087219944111    0.856730793636257  0.0000
  O3     O3        0.865052162251469    0.728063293906009    0.850799393030431  0.0000
  O3     O3        0.640392023276377    0.256532373070070    0.855542546024583  0.0000
  O2     O2        0.138721189111839    0.713452185994824    0.114535982754680  0.0000
  O2     O2        0.362529857714880    0.246239593651245    0.116399424925681  0.0000
  O3     O3        0.624479489284082    0.546864020201637    0.032056997310878  0.0000
  O3     O3        0.879160898702294    0.430354406431294    0.017888058528710  0.0000
  O2     O2        0.365706706753457    0.495516378757070    0.936132900147870  0.0000
  O2     O2        0.130687411068652    0.464680924254776    0.936354010967211  0.0000
  O3     O3        0.743525130190265    0.286940778014288    0.062866383714985  0.0000
  O3     O3        0.762398645840611    0.682214428204714    0.057972513695273  0.0000
  O2     O2        0.256181244663438    0.256071658970755    0.929068206590975  0.0000
  O2     O2        0.240148036726972    0.703921144461328    0.926022499474705  0.0000
