data_c01080.vasp
_audit_creation_method             Generated by GULP
_audit_author_name                 Salvador R. G. Balestra
_symmetry_space_group_name_H-M     'P 1             '
_symmetry_Int_Tables_number        1

loop_
_symmetry_equiv_pos_site_id
_symmetry_equiv_pos_as_xyz
_cell_length_a                       17.0555
_cell_length_b                        7.5876
_cell_length_c                       10.3124
_cell_angle_alpha                   89.7003
_cell_angle_beta                    90.4791
_cell_angle_gamma                   89.8259

loop_
_atom_site_label
_atom_site_type_symbol
_atom_site_fract_x
_atom_site_fract_y
_atom_site_fract_z
_atom_site_charge
  Ge     Ge        0.556730000000016    0.000000000000000    0.122129999999970  0.0000
  Ge     Ge        0.831945830830354    0.258689978621556    0.705240605539829  0.0000
  Ge     Ge        0.648719514032271    0.327751664843114    0.019326259823768  0.0000
  Ge     Ge        0.350946366652356    0.308340780345651    0.957087475766027  0.0000
  Si     Si        0.050916176654930    0.968427097711291    0.358358513983115  0.0000
  Si     Si        0.449305650252591    0.978610468897341    0.368888293902728  0.0000
  Si     Si        0.952379128917635    0.975315843620439    0.615273402109613  0.0000
  Si     Si        0.547831763486611    0.988330506152631    0.627168531095070  0.0000
  Si     Si        0.943151967351374    0.978344456633805    0.111494776336286  0.0000
  Si     Si        0.446242210020737    0.987631794018756    0.876080494167845  0.0000
  Si     Si        0.053843040434881    0.986027645289292    0.873441326798515  0.0000
  Si     Si        0.167043982907740    0.258894000876173    0.260411496005095  0.0000
  Si     Si        0.333748997030995    0.693510103651451    0.269404515262162  0.0000
  Si     Si        0.667807022562864    0.707493160883427    0.703518111708509  0.0000
  Si     Si        0.849105083381297    0.669964599020704    0.699747506552386  0.0000
  Si     Si        0.649213027600920    0.300035011875265    0.710442243217853  0.0000
  Si     Si        0.153523520867700    0.663486357100121    0.267683173907285  0.0000
  Si     Si        0.346839670995213    0.285826294254935    0.264842314079613  0.0000
  Si     Si        0.852566167279472    0.664300848834769    0.000175452018951  0.0000
  Si     Si        0.150088330204934    0.669837177506469    0.966159334190745  0.0000
  Si     Si        0.331431731204518    0.712857080412259    0.966766461492595  0.0000
  Si     Si        0.167266284357502    0.272614023048389    0.955819722588054  0.0000
  Si     Si        0.672247644286514    0.728545088696316    0.004883497129478  0.0000
  Si     Si        0.831381028478274    0.266582365536653    0.014421104926818  0.0000
  O2     O2        0.114217018114087    0.123259068925928    0.339595564476758  0.0000
  O2     O2        0.385593552561890    0.822221825979726    0.357484748550382  0.0000
  O3     O3        0.886710952939568    0.125062131828828    0.607860095386058  0.0000
  O2     O2        0.616989920557538    0.842125070004607    0.615053020784533  0.0000
  O2     O2        0.907060566793807    0.788618585747227    0.614062634487023  0.0000
  O2     O2        0.585188059100476    0.183714754889503    0.631886091839807  0.0000
  O2     O2        0.094742070327761    0.779808845943396    0.352580516607865  0.0000
  O2     O2        0.407207600802910    0.167578509640889    0.348259314308720  0.0000
  O2     O2        0.012772365830039    0.986065577244284    0.498293391514963  0.0000
  O2     O2        0.487041059499982    0.974954845456227    0.510291815740175  0.0000
  O2     O2        0.982213899029988    0.983228604620003    0.252402665142159  0.0000
  O3     O3        0.519937641610023    0.949123216439807    0.270927448156855  0.0000
  O2     O2        0.000587253543490    0.004362595622091    0.747543507873345  0.0000
  O2     O2        0.498251972272527    0.941735159755416    0.753736375030793  0.0000
  O1     O1        0.581801577318258    0.217294518168920    0.110429224107155  0.0000
  O2     O2        0.908656575550383    0.783002620096233    0.089199451773613  0.0000
  O3     O3        0.419454490932679    0.190354891551805    0.871868116028090  0.0000
  O2     O2        0.093117153782450    0.792232281637560    0.879965815962338  0.0000
  O2     O2        0.367025607063930    0.869182432743032    0.880709709581319  0.0000
  O2     O2        0.120583309083268    0.135077380677151    0.867485930983557  0.0000
  O3     O3        0.643142222921462    0.885760381677557    0.091979598732383  0.0000
  O2     O2        0.875905836258707    0.127121256030429    0.107334810531774  0.0000
  O3     O3        0.492088942716013    0.932502964563466    0.005004487311394  0.0000
  O2     O2        0.005095401733304    0.026482960528198    0.001595446552132  0.0000
  O2     O2        0.136836717022928    0.456645830614916    0.289829794806888  0.0000
  O2     O2        0.363416965641193    0.492763999565018    0.288881848219226  0.0000
  O3     O3        0.867743963564619    0.468075730248788    0.678812806928017  0.0000
  O2     O2        0.634338890542880    0.509763139793836    0.688878549057125  0.0000
  O2     O2        0.257688382568768    0.239986486717713    0.304939636941107  0.0000
  O2     O2        0.242737021264641    0.707546273574961    0.309297445271981  0.0000
  O3     O3        0.734602198782349    0.252110741460534    0.658843143086786  0.0000
  O2     O2        0.758540975224574    0.712078857450250    0.659993029383063  0.0000
  O2     O2        0.163762551209881    0.218433481698560    0.107479000083927  0.0000
  O2     O2        0.341719616744343    0.751851640845718    0.119990600584594  0.0000
  O3     O3        0.833968246991897    0.199879531167013    0.866910888646620  0.0000
  O2     O2        0.662961249337500    0.772320993043508    0.851745310715315  0.0000
  O2     O2        0.863500321142143    0.720833489532595    0.850538554328327  0.0000
  O3     O3        0.639775180145423    0.255066378581659    0.861066512466557  0.0000
  O2     O2        0.138419554423683    0.714545208850173    0.117485527435987  0.0000
  O3     O3        0.362828561376278    0.240746130843721    0.116431265400617  0.0000
  O3     O3        0.626511812871999    0.548150602167444    0.034079338030212  0.0000
  O2     O2        0.873965384585115    0.458593240770442    0.019778238238635  0.0000
  O3     O3        0.372372942757220    0.527971597485330    0.936785531102115  0.0000
  O2     O2        0.129162971471416    0.467047555143067    0.937455598433212  0.0000
  O3     O3        0.744164510447887    0.283872585065279    0.066420715968723  0.0000
  O2     O2        0.762996158781664    0.692531651597916    0.040151960762828  0.0000
  O3     O3        0.255839136203358    0.272123440947579    0.908700079524881  0.0000
  O2     O2        0.239972958133534    0.702767605289561    0.929092580846982  0.0000
