data_c01095.vasp
_audit_creation_method             Generated by GULP
_audit_author_name                 Salvador R. G. Balestra
_symmetry_space_group_name_H-M     'P 1             '
_symmetry_Int_Tables_number        1

loop_
_symmetry_equiv_pos_site_id
_symmetry_equiv_pos_as_xyz
_cell_length_a                       17.0042
_cell_length_b                        7.5898
_cell_length_c                       10.3065
_cell_angle_alpha                   88.5293
_cell_angle_beta                    89.8630
_cell_angle_gamma                   90.7828

loop_
_atom_site_label
_atom_site_type_symbol
_atom_site_fract_x
_atom_site_fract_y
_atom_site_fract_z
_atom_site_charge
  Ge     Ge        0.556730000000016    0.000000000000000    0.122129999999970  0.0000
  Ge     Ge        0.858631156837946    0.356297168628949    0.705282310557382  0.0000
  Ge     Ge        0.335805536456847    0.313239811905804    0.970783324224898  0.0000
  Ge     Ge        0.649243775975115    0.674045459630186    0.023114693419355  0.0000
  Si     Si        0.053638570339526    0.021861211713459    0.364799887001130  0.0000
  Si     Si        0.454647620620525    0.022210401156849    0.376693454546369  0.0000
  Si     Si        0.960125659059838    0.048732176658631    0.625888584728576  0.0000
  Si     Si        0.556434665060626    0.023453844867926    0.629859902177377  0.0000
  Si     Si        0.946123855114793    0.015989764468330    0.115020083185329  0.0000
  Si     Si        0.448548840912238    0.037082933793366    0.877762442323515  0.0000
  Si     Si        0.060195849207153    0.035502666855622    0.880266043624253  0.0000
  Si     Si        0.158521049276262    0.336757410143462    0.281523193686897  0.0000
  Si     Si        0.351922974274528    0.716335026743746    0.276666376194102  0.0000
  Si     Si        0.657967412870023    0.714942719123907    0.715518726122431  0.0000
  Si     Si        0.837863617834052    0.763598068607463    0.725415902582636  0.0000
  Si     Si        0.674473275974771    0.311402434909222    0.699845404296164  0.0000
  Si     Si        0.170576849973557    0.740481373785066    0.280332507457689  0.0000
  Si     Si        0.338080798667413    0.306821910343133    0.278997614965331  0.0000
  Si     Si        0.675827972390679    0.274215905234935    0.003576260022404  0.0000
  Si     Si        0.832819400767053    0.728445879136269    0.030137849759122  0.0000
  Si     Si        0.171428478980455    0.750125571647128    0.977998341959129  0.0000
  Si     Si        0.354610653606596    0.718023154457488    0.976607149194652  0.0000
  Si     Si        0.152884290766475    0.353494191336183    0.975949318293000  0.0000
  Si     Si        0.857451288193449    0.335945501446998    0.012139403587412  0.0000
  O2     O2        0.096926090090587    0.212803517791861    0.360363512100310  0.0000
  O2     O2        0.411818614003850    0.831776598868041    0.360340998524022  0.0000
  O3     O3        0.926796271324167    0.244179293904590    0.616068129173699  0.0000
  O2     O2        0.600969007317957    0.837364765128987    0.627879480294891  0.0000
  O2     O2        0.884325961088049    0.922974406168600    0.653707832269645  0.0000
  O2     O2        0.619807099385937    0.183772902705958    0.614261736740186  0.0000
  O2     O2        0.119697114198404    0.871150133803528    0.364974387791482  0.0000
  O2     O2        0.391154226906731    0.177706362492406    0.366325361279711  0.0000
  O2     O2        0.002672735338097    0.998314423909441    0.493976470762415  0.0000
  O2     O2        0.492379866034438    0.029096751981554    0.517789077420702  0.0000
  O2     O2        0.995673670983483    0.998977605801773    0.244976309013152  0.0000
  O3     O3        0.524437516845212    0.048517703458710    0.274396309547217  0.0000
  O2     O2        0.023906937587157    0.023368061676535    0.738971402490414  0.0000
  O2     O2        0.510798452029479    0.047511630465682    0.763579308602855  0.0000
  O3     O3        0.644817739471992    0.109163915763277    0.085814900939540  0.0000
  O2     O2        0.877310454131717    0.868337640276336    0.119672627584040  0.0000
  O3     O3        0.380123314082509    0.177944708946072    0.863053417462681  0.0000
  O2     O2        0.133065220296867    0.901496320568459    0.888938849533575  0.0000
  O2     O2        0.410048674162651    0.840949451881418    0.886166469525730  0.0000
  O2     O2        0.088923494108086    0.236161880486387    0.901863721159427  0.0000
  O1     O1        0.579798136875625    0.782271617106428    0.109440042778908  0.0000
  O2     O2        0.910345465056623    0.211619920450644    0.104943284692176  0.0000
  O3     O3        0.490247928931719    0.082829476009944    0.012052252528822  0.0000
  O2     O2        0.998696922552704    0.974091940264456    0.990366525367689  0.0000
  O2     O2        0.140918451112371    0.540469094142464    0.309826817766178  0.0000
  O2     O2        0.368087154991491    0.508517114982857    0.295671813204246  0.0000
  O3     O3        0.876828935192254    0.579938229178900    0.692016684407518  0.0000
  O2     O2        0.640838057101887    0.509625048744589    0.687662486144431  0.0000
  O2     O2        0.247207816231941    0.291165305818488    0.325174698384843  0.0000
  O2     O2        0.262543494306950    0.758604525864829    0.316905305193806  0.0000
  O3     O3        0.764026060456688    0.311625652557228    0.652973103088020  0.0000
  O2     O2        0.747907175073474    0.762213195481141    0.675706023087471  0.0000
  O2     O2        0.150141971567844    0.302762041969215    0.128851235533436  0.0000
  O2     O2        0.368400742638774    0.771854874094227    0.126464570271085  0.0000
  O3     O3        0.874065595429754    0.288554095310634    0.864539209076802  0.0000
  O3     O3        0.642027519542923    0.752831091985060    0.864551888214511  0.0000
  O2     O2        0.835177090396606    0.792943709490131    0.879609235826816  0.0000
  O2     O2        0.672142441131727    0.242253105944188    0.849151812549202  0.0000
  O2     O2        0.160804142225692    0.793908450125034    0.129052706014611  0.0000
  O3     O3        0.343849876622692    0.247830643445104    0.131636800938780  0.0000
  O3     O3        0.628590897032466    0.450859656362357    0.033942207386325  0.0000
  O2     O2        0.877107388592324    0.540169848792240    0.041049670374816  0.0000
  O3     O3        0.378342463773561    0.520460377765586    0.954870030385244  0.0000
  O2     O2        0.132144509775419    0.559272846553740    0.951361301270253  0.0000
  O2     O2        0.765871712080689    0.306694074893917    0.043656013090596  0.0000
  O3     O3        0.743976517260321    0.712728095991058    0.078029415445934  0.0000
  O3     O3        0.238947340383517    0.317233062050152    0.923798210745332  0.0000
  O2     O2        0.263207778945277    0.744880736994977    0.941910133500320  0.0000
