data_c01029.vasp
_audit_creation_method             Generated by GULP
_audit_author_name                 Salvador R. G. Balestra
_symmetry_space_group_name_H-M     'P 1             '
_symmetry_Int_Tables_number        1

loop_
_symmetry_equiv_pos_site_id
_symmetry_equiv_pos_as_xyz
_cell_length_a                       17.0235
_cell_length_b                        7.5844
_cell_length_c                       10.3080
_cell_angle_alpha                   89.7139
_cell_angle_beta                    89.6730
_cell_angle_gamma                   89.1209

loop_
_atom_site_label
_atom_site_type_symbol
_atom_site_fract_x
_atom_site_fract_y
_atom_site_fract_z
_atom_site_charge
  Ge     Ge        0.556730000000016    0.000000000000000    0.122129999999970  0.0000
  Ge     Ge        0.338899227009824    0.708325592385617    0.292701736489851  0.0000
  Ge     Ge        0.650965772524370    0.328335550924928    0.036017243516564  0.0000
  Ge     Ge        0.862938815358254    0.657472636663445    0.031557962024366  0.0000
  Si     Si        0.052239603912233    0.987858023255508    0.373105538861716  0.0000
  Si     Si        0.455717044185369    0.984846923894906    0.381717357879803  0.0000
  Si     Si        0.956850482003592    0.982820165725252    0.636568766141982  0.0000
  Si     Si        0.557692454202879    0.008082264200578    0.632657795097740  0.0000
  Si     Si        0.951614121343952    0.979742970097447    0.123038788311344  0.0000
  Si     Si        0.449698695331939    0.987158506808878    0.875703777505469  0.0000
  Si     Si        0.064026731508414    0.989768897036542    0.884244308308952  0.0000
  Si     Si        0.170333410631282    0.268808422955082    0.284679112257687  0.0000
  Si     Si        0.837099238162722    0.272134818471536    0.727348839913272  0.0000
  Si     Si        0.676456812789375    0.717579779846237    0.730328726240314  0.0000
  Si     Si        0.855650989520765    0.676408192219823    0.724102006413617  0.0000
  Si     Si        0.658063952604374    0.311586924933306    0.728923005314443  0.0000
  Si     Si        0.154419717981150    0.674570428573404    0.287014950988182  0.0000
  Si     Si        0.352540298633720    0.294725697997322    0.289280754076980  0.0000
  Si     Si        0.355574035562636    0.302630901988290    0.987974533840527  0.0000
  Si     Si        0.158673439976529    0.672308470820445    0.983549791000240  0.0000
  Si     Si        0.340103617257494    0.707224652164355    0.984472917927423  0.0000
  Si     Si        0.174128929142573    0.272496147268794    0.982107058423162  0.0000
  Si     Si        0.679582012041928    0.725978742163502    0.034393415519617  0.0000
  Si     Si        0.834574196238387    0.260743948149604    0.032767919856819  0.0000
  O2     O2        0.121220279357156    0.131895639141858    0.370120463014744  0.0000
  O3     O3        0.390532587211762    0.836655611237727    0.398191666031262  0.0000
  O2     O2        0.889682883052529    0.133929830808907    0.647022388658852  0.0000
  O2     O2        0.623076148338211    0.854416630733400    0.649869136493810  0.0000
  O2     O2        0.916028283712389    0.791976898483294    0.638713976493068  0.0000
  O2     O2        0.597740607735846    0.198813014543509    0.643337643367422  0.0000
  O2     O2        0.090302999576575    0.791791724882031    0.364338329836567  0.0000
  O2     O2        0.410407341844686    0.173282956885656    0.374214497198079  0.0000
  O2     O2        0.003006593111834    0.006747624538636    0.503393266350096  0.0000
  O2     O2        0.521725197401688    0.991372682212689    0.490515583174358  0.0000
  O2     O2        0.993585113671690    0.027983566674659    0.255621670020299  0.0000
  O3     O3        0.499452298500804    0.935896825659517    0.248496931984708  0.0000
  O2     O2        0.020451630051937    0.004553440302517    0.748920658859456  0.0000
  O2     O2        0.485375413331848    0.986146869170756    0.731870736306835  0.0000
  O1     O1        0.583040456852693    0.216090999285154    0.125054101178059  0.0000
  O3     O3        0.929053663673428    0.776297874619422    0.120064720470181  0.0000
  O2     O2        0.414914027786820    0.183858691472294    0.903619405974997  0.0000
  O2     O2        0.101265450095413    0.793313832469813    0.897265732815235  0.0000
  O2     O2        0.381962761061099    0.840244119748541    0.885434088822574  0.0000
  O2     O2        0.132410609217209    0.134679215149979    0.889058866492099  0.0000
  O3     O3        0.645106019833476    0.883086686698801    0.118193845626354  0.0000
  O2     O2        0.871639002459903    0.095187004469904    0.110055483166771  0.0000
  O3     O3        0.514919318609433    0.936021214746888    0.978178817086931  0.0000
  O2     O2        0.005558115711904    0.033375547833448    0.001493429261062  0.0000
  O2     O2        0.139802922989811    0.467375180204174    0.313036786564338  0.0000
  O3     O3        0.370933795264595    0.494385926825291    0.316933686408633  0.0000
  O2     O2        0.871689619059763    0.467429544098782    0.704828133303439  0.0000
  O2     O2        0.641993180166877    0.521548621821320    0.712224945729861  0.0000
  O2     O2        0.261878418535301    0.251520411593332    0.322841582283933  0.0000
  O3     O3        0.240597387377143    0.724348584065512    0.331649331969786  0.0000
  O2     O2        0.746805104797220    0.266874558271522    0.680154356001061  0.0000
  O2     O2        0.766448553595187    0.722488844525289    0.679622466036716  0.0000
  O2     O2        0.161528863703173    0.222300731989180    0.132900284878872  0.0000
  O3     O3        0.351309917645754    0.768258776082474    0.131688623116095  0.0000
  O2     O2        0.835823613948523    0.222051928292234    0.878550910599401  0.0000
  O2     O2        0.678375456404957    0.771346477697176    0.880384175131018  0.0000
  O3     O3        0.871154719728526    0.725770446728842    0.872019039856456  0.0000
  O3     O3        0.643524823001750    0.257738624722226    0.876684825245504  0.0000
  O2     O2        0.144649547075668    0.717433681190174    0.134284538451793  0.0000
  O2     O2        0.369459593225867    0.249458380372358    0.137931511585547  0.0000
  O3     O3        0.629831215949701    0.548592440342281    0.054138467276430  0.0000
  O3     O3        0.884075321190172    0.436715734931992    0.054078936329534  0.0000
  O2     O2        0.375070572410884    0.508312518625185    0.967532544992644  0.0000
  O2     O2        0.139283828686515    0.468651756742722    0.955370716948116  0.0000
  O3     O3        0.746697295596632    0.286056695943169    0.083221882464891  0.0000
  O3     O3        0.767455081320544    0.688351969387673    0.080857933475410  0.0000
  O2     O2        0.266352412204488    0.265872016450718    0.947927014253778  0.0000
  O2     O2        0.248552931291196    0.709625212780439    0.947650051926137  0.0000
