data_c01009.vasp
_audit_creation_method             Generated by GULP
_audit_author_name                 Salvador R. G. Balestra
_symmetry_space_group_name_H-M     'P 1             '
_symmetry_Int_Tables_number        1

loop_
_symmetry_equiv_pos_site_id
_symmetry_equiv_pos_as_xyz
_cell_length_a                       17.0656
_cell_length_b                        7.5832
_cell_length_c                       10.3116
_cell_angle_alpha                   90.8873
_cell_angle_beta                    89.2292
_cell_angle_gamma                   89.1109

loop_
_atom_site_label
_atom_site_type_symbol
_atom_site_fract_x
_atom_site_fract_y
_atom_site_fract_z
_atom_site_charge
  Ge     Ge        0.556730000000016    0.000000000000000    0.122129999999970  0.0000
  Ge     Ge        0.337594961581066    0.692820683086024    0.297366818127296  0.0000
  Ge     Ge        0.856866131722482    0.645452447516675    0.719338962153267  0.0000
  Ge     Ge        0.650836860262707    0.328242371011596    0.044813201150720  0.0000
  Si     Si        0.050737120168725    0.974330845911578    0.377378569131698  0.0000
  Si     Si        0.455775532998094    0.972273118887704    0.381435583072051  0.0000
  Si     Si        0.959233718566767    0.953113580562081    0.640963232710656  0.0000
  Si     Si        0.555540035673151    0.980758370559075    0.634354084938302  0.0000
  Si     Si        0.947083248409265    0.979568735609571    0.127108456418944  0.0000
  Si     Si        0.448193769250597    0.968510903811095    0.878295135491334  0.0000
  Si     Si        0.062742458173949    0.971017244008121    0.890633711057327  0.0000
  Si     Si        0.169059008781299    0.254325608458947    0.288461385784923  0.0000
  Si     Si        0.835950631841329    0.237124043846972    0.739482795318018  0.0000
  Si     Si        0.674069594729827    0.691085934114483    0.721456510908736  0.0000
  Si     Si        0.657017803301503    0.284956276360954    0.738168318198082  0.0000
  Si     Si        0.154166204704384    0.660258333071978    0.295800946688858  0.0000
  Si     Si        0.350933396022724    0.278189623268836    0.290368383249952  0.0000
  Si     Si        0.858676665118204    0.660869848288058    0.026744422739597  0.0000
  Si     Si        0.353691787524185    0.285503962412262    0.989423109511729  0.0000
  Si     Si        0.157768010465453    0.656283554071751    0.991400785088183  0.0000
  Si     Si        0.338377910134942    0.690649476251496    0.989402601176268  0.0000
  Si     Si        0.172553007478935    0.256540088694932    0.986090030999982  0.0000
  Si     Si        0.678413774849541    0.726933172006346    0.024550381064497  0.0000
  Si     Si        0.833237776694760    0.269077756678846    0.044507099265722  0.0000
  O2     O2        0.119143973141485    0.118779134266694    0.371671765622042  0.0000
  O3     O3        0.392218550563216    0.821582321981751    0.398815969822680  0.0000
  O2     O2        0.883317530427728    0.078149229581041    0.669283875804134  0.0000
  O2     O2        0.617518136176649    0.818736753549270    0.640761175961357  0.0000
  O3     O3        0.925931232017907    0.757969399177008    0.630860000407582  0.0000
  O2     O2        0.597953435238919    0.166641714082859    0.654967286535506  0.0000
  O2     O2        0.089876254445078    0.778688438578717    0.374234910667072  0.0000
  O2     O2        0.408654979412737    0.158286745660712    0.373705479304857  0.0000
  O2     O2        0.001645426758943    0.005585557139347    0.508346989913942  0.0000
  O2     O2        0.519531774808558    0.981915619733915    0.492452256939319  0.0000
  O2     O2        0.992494156429551    0.000135699894336    0.259589767098337  0.0000
  O3     O3        0.502639197418053    0.927478782491370    0.249426861201996  0.0000
  O2     O2        0.022877248625869    0.977110490287260    0.752583128908767  0.0000
  O2     O2        0.483526894910388    0.956466286167655    0.734016230029283  0.0000
  O1     O1        0.581657539528503    0.216860842128413    0.131936316827684  0.0000
  O2     O2        0.913222796569494    0.782616579008066    0.116198550812246  0.0000
  O2     O2        0.412296175430920    0.166184380682367    0.901821884756121  0.0000
  O2     O2        0.099488685019536    0.775984983424272    0.908968696077907  0.0000
  O2     O2        0.381335133166630    0.821087602382986    0.891760886674466  0.0000
  O2     O2        0.130647135804667    0.116665854402005    0.893775828374028  0.0000
  O3     O3        0.646723047269695    0.889073852229508    0.108052586328887  0.0000
  O2     O2        0.877391337387176    0.124467308307868    0.129883827482095  0.0000
  O3     O3        0.513908855916232    0.929073797623839    0.980666426752907  0.0000
  O2     O2        0.002107269031280    0.021925898466514    0.004829147343748  0.0000
  O2     O2        0.139783587476109    0.453551755601034    0.321166781361722  0.0000
  O3     O3        0.368566046172294    0.478560082291445    0.319537654741975  0.0000
  O3     O3        0.873854783425318    0.421396039400268    0.703457255353794  0.0000
  O2     O2        0.641183654822810    0.492187595089423    0.712360761206040  0.0000
  O2     O2        0.260515522830010    0.233746369868795    0.323876554314107  0.0000
  O3     O3        0.240006483086778    0.711030259637076    0.340557665625068  0.0000
  O2     O2        0.745889183661083    0.235030142605419    0.692921767372238  0.0000
  O3     O3        0.762620580480025    0.692160381710003    0.668822830397279  0.0000
  O2     O2        0.159255150633028    0.208984304804879    0.136420524579468  0.0000
  O3     O3        0.349050302520318    0.752671384671897    0.137104129780836  0.0000
  O2     O2        0.833723070124971    0.208987282661994    0.893846268918306  0.0000
  O2     O2        0.675488686768150    0.759116953343124    0.870032641221119  0.0000
  O3     O3        0.873125380711174    0.709285811292927    0.878284961239414  0.0000
  O3     O3        0.642457472427630    0.245861717375537    0.887737381349511  0.0000
  O2     O2        0.145633971032753    0.700314964613492    0.143333191470750  0.0000
  O2     O2        0.368747281306294    0.232657759239847    0.138317985471570  0.0000
  O3     O3        0.630424282745139    0.550329924765855    0.055401011071034  0.0000
  O2     O2        0.878475615747910    0.455868284467929    0.054678664203418  0.0000
  O2     O2        0.372885596602397    0.491035341492807    0.971092169939482  0.0000
  O2     O2        0.138555028839406    0.452564797869566    0.960271852667760  0.0000
  O3     O3        0.745336530369471    0.287407340155568    0.096588706373443  0.0000
  O2     O2        0.767937292537457    0.691809778336765    0.063811125356064  0.0000
  O2     O2        0.264583337668562    0.248176359676457    0.951499816107137  0.0000
  O2     O2        0.247139897120806    0.694554194740502    0.952569680096802  0.0000
