data_c01007.vasp
_audit_creation_method             Generated by GULP
_audit_author_name                 Salvador R. G. Balestra
_symmetry_space_group_name_H-M     'P 1             '
_symmetry_Int_Tables_number        1

loop_
_symmetry_equiv_pos_site_id
_symmetry_equiv_pos_as_xyz
_cell_length_a                       17.0878
_cell_length_b                        7.6402
_cell_length_c                       10.3025
_cell_angle_alpha                   90.1522
_cell_angle_beta                    89.5586
_cell_angle_gamma                   88.9959

loop_
_atom_site_label
_atom_site_type_symbol
_atom_site_fract_x
_atom_site_fract_y
_atom_site_fract_z
_atom_site_charge
  Ge     Ge        0.556730000000016    0.000000000000000    0.122129999999970  0.0000
  Ge     Ge        0.340394367248553    0.671749878588115    0.277140703822465  0.0000
  Ge     Ge        0.667552399958323    0.704443140741561    0.705106767949913  0.0000
  Ge     Ge        0.826710990489666    0.252799313820889    0.019932724354458  0.0000
  Si     Si        0.046971942128791    0.970539598086719    0.360636455029726  0.0000
  Si     Si        0.451302685798688    0.968183909823086    0.374916015586270  0.0000
  Si     Si        0.950099089382078    0.959649108887229    0.622476473560599  0.0000
  Si     Si        0.547456989429590    0.992223644168324    0.630405018743899  0.0000
  Si     Si        0.939201898812311    0.965100773451154    0.112178717258093  0.0000
  Si     Si        0.442870966326973    0.965532418793449    0.882747354653880  0.0000
  Si     Si        0.051757159632696    0.986862116235678    0.875131478333512  0.0000
  Si     Si        0.156631303157721    0.265089222138280    0.269032650012236  0.0000
  Si     Si        0.831473043595278    0.248976798588673    0.710362774488472  0.0000
  Si     Si        0.850625046672374    0.651178165344382    0.705757285635401  0.0000
  Si     Si        0.651898542576698    0.296627135367499    0.711717422862371  0.0000
  Si     Si        0.156611505335903    0.668081090944820    0.280291898567016  0.0000
  Si     Si        0.338401396112876    0.261685471139238    0.268983620927028  0.0000
  Si     Si        0.645623510388361    0.319664508723302    0.015546142625284  0.0000
  Si     Si        0.852054463902069    0.649144242425368    0.009075262959689  0.0000
  Si     Si        0.340975344515371    0.278042968189864    0.966358099328946  0.0000
  Si     Si        0.154146888443994    0.674470755355243    0.975255529415266  0.0000
  Si     Si        0.334399656525212    0.679406485311580    0.966800878466049  0.0000
  Si     Si        0.159347041053385    0.274999635700649    0.967076402386658  0.0000
  Si     Si        0.671505390394574    0.714691764353075    0.011472147385828  0.0000
  O2     O2        0.103687389472109    0.136845278699822    0.353323031440227  0.0000
  O3     O3        0.407647366837049    0.785304756051985    0.364572449858291  0.0000
  O2     O2        0.881348477687949    0.106938738154570    0.627792152177324  0.0000
  O3     O3        0.612154951515664    0.840984970555173    0.609035323163400  0.0000
  O2     O2        0.913336540292199    0.766005520061597    0.626879106441216  0.0000
  O2     O2        0.591635853249977    0.176764813431951    0.634696598147180  0.0000
  O2     O2        0.097934356587481    0.791482107301862    0.362903764737773  0.0000
  O2     O2        0.386925064857572    0.118859498920436    0.347720661610837  0.0000
  O2     O2        0.995968201314352    0.984003119833369    0.489376312142073  0.0000
  O2     O2        0.483265306702847    0.995825086300619    0.519054656618176  0.0000
  O2     O2        0.989295411838450    0.971260346354640    0.240296844541673  0.0000
  O3     O3        0.524509713928139    0.980630962513167    0.278845789569595  0.0000
  O2     O2        0.011758439048838    0.984890068911847    0.736657129277513  0.0000
  O2     O2        0.503593892349120    0.953637801162190    0.765471830597395  0.0000
  O3     O3        0.580825036482733    0.215400485023121    0.093692238827244  0.0000
  O2     O2        0.909230039628977    0.768329080877399    0.092556238585823  0.0000
  O2     O2        0.396801906551479    0.152989242810190    0.879301764748312  0.0000
  O2     O2        0.096036356785414    0.801814366768378    0.898038989184637  0.0000
  O2     O2        0.381668397483531    0.806896301089346    0.871959690797936  0.0000
  O2     O2        0.112547769605808    0.145777706983619    0.874795383359365  0.0000
  O3     O3        0.636700835980401    0.859794204090649    0.106534902479258  0.0000
  O3     O3        0.866944559400608    0.099017337072383    0.121627387290572  0.0000
  O3     O3        0.486524632631982    0.933345540495200    0.016626062219451  0.0000
  O2     O2        0.988272657059568    0.027619203491830    0.986789634067616  0.0000
  O2     O2        0.133983597004079    0.465843127887692    0.302595980043025  0.0000
  O3     O3        0.364117435021265    0.454284296620147    0.303777012966182  0.0000
  O2     O2        0.865982671001142    0.442747132598902    0.686753636940818  0.0000
  O3     O3        0.631768431050777    0.496592769287098    0.684530621696754  0.0000
  O2     O2        0.247380135400160    0.232511403837252    0.302790382755272  0.0000
  O3     O3        0.244119669084556    0.702795727610208    0.325103575101817  0.0000
  O2     O2        0.740788796667993    0.249088480161006    0.665564110614562  0.0000
  O3     O3        0.764593756604607    0.701365243400045    0.657769344027592  0.0000
  O2     O2        0.144428523067465    0.224458626012113    0.116968315167278  0.0000
  O3     O3        0.347509034533777    0.728594844122337    0.115972117882156  0.0000
  O3     O3        0.834387818758840    0.192391299108720    0.859262763052054  0.0000
  O3     O3        0.662472656313367    0.777013652842007    0.863708189400504  0.0000
  O2     O2        0.860310958030693    0.697786967973771    0.857381106514901  0.0000
  O2     O2        0.644707951159383    0.258057937129738    0.865273171419497  0.0000
  O2     O2        0.147693499267659    0.714867357651341    0.128215594881297  0.0000
  O2     O2        0.354907532482324    0.227931408179806    0.116129625265934  0.0000
  O2     O2        0.628036007628951    0.527924427268295    0.025537692601275  0.0000
  O3     O3        0.873810555801257    0.450280014552199    0.036514890643176  0.0000
  O2     O2        0.363467082734309    0.479141509174096    0.942125815529451  0.0000
  O2     O2        0.130726187112151    0.474892573972020    0.944130600970752  0.0000
  O3     O3        0.730787422838431    0.272953748597006    0.070166730113236  0.0000
  O2     O2        0.761887676433344    0.684260684375605    0.048966095869081  0.0000
  O2     O2        0.250615369202074    0.251391236203482    0.930913529916998  0.0000
  O2     O2        0.243244575601338    0.702664125493352    0.930494904713756  0.0000
