data_c01053.vasp
_audit_creation_method             Generated by GULP
_audit_author_name                 Salvador R. G. Balestra
_symmetry_space_group_name_H-M     'P 1             '
_symmetry_Int_Tables_number        1

loop_
_symmetry_equiv_pos_site_id
_symmetry_equiv_pos_as_xyz
_cell_length_a                       17.0190
_cell_length_b                        7.6354
_cell_length_c                       10.3260
_cell_angle_alpha                   90.0599
_cell_angle_beta                    89.8444
_cell_angle_gamma                   89.3650

loop_
_atom_site_label
_atom_site_type_symbol
_atom_site_fract_x
_atom_site_fract_y
_atom_site_fract_z
_atom_site_charge
  Ge     Ge        0.556730000000016    0.000000000000000    0.122129999999970  0.0000
  Ge     Ge        0.339446800907783    0.696017823921936    0.288335063602632  0.0000
  Ge     Ge        0.333528997860017    0.700927278804329    0.974449509814515  0.0000
  Ge     Ge        0.829964924919462    0.266822493942666    0.030466144730881  0.0000
  Si     Si        0.052390626365085    0.971955642170138    0.373343396311624  0.0000
  Si     Si        0.457623992883077    0.982742598452824    0.383519975007855  0.0000
  Si     Si        0.956143209403302    0.976637951461116    0.635723965439625  0.0000
  Si     Si        0.558205492995888    0.004875487539971    0.639110335327054  0.0000
  Si     Si        0.941445873044488    0.981994073623679    0.128559486481522  0.0000
  Si     Si        0.445224592388266    0.980402053607975    0.881761104829251  0.0000
  Si     Si        0.053733715020720    0.985641831255070    0.894026435772504  0.0000
  Si     Si        0.166753827915462    0.261197161981564    0.285407192746133  0.0000
  Si     Si        0.839374136390982    0.268354645981272    0.722283809016262  0.0000
  Si     Si        0.673286165948269    0.712698469033481    0.716948361590537  0.0000
  Si     Si        0.854449784679350    0.671897301740117    0.722504336442712  0.0000
  Si     Si        0.660246397387577    0.312833933079570    0.717366196165269  0.0000
  Si     Si        0.158270796570559    0.661707466330987    0.293745849388246  0.0000
  Si     Si        0.348922732688489    0.281108093352917    0.280015180502997  0.0000
  Si     Si        0.647659085851809    0.324325916310014    0.021853980127622  0.0000
  Si     Si        0.856234910263105    0.663916122204478    0.022180141454692  0.0000
  Si     Si        0.348998341781569    0.292834065300504    0.980916776967330  0.0000
  Si     Si        0.152202754156479    0.666051068144729    0.986275132387629  0.0000
  Si     Si        0.165779019222284    0.270281890577113    0.983895643626890  0.0000
  Si     Si        0.673370671293430    0.716027875204164    0.018125900522561  0.0000
  O2     O2        0.117911244531193    0.122918174603470    0.368579277654229  0.0000
  O3     O3        0.401718086467848    0.816477111698876    0.382421064210438  0.0000
  O2     O2        0.892441839138578    0.134436797628897    0.638652889593756  0.0000
  O2     O2        0.623717464321372    0.849758584684203    0.630855013238751  0.0000
  O2     O2        0.912615909078367    0.789534916257092    0.637351252042324  0.0000
  O2     O2        0.600922035168902    0.192536482111860    0.636774868040836  0.0000
  O2     O2        0.093738741140993    0.781654494535228    0.365828738979981  0.0000
  O2     O2        0.404651423516034    0.156865984973677    0.364059589092640  0.0000
  O2     O2        0.005346687214306    0.990610816999370    0.505397644600311  0.0000
  O2     O2        0.499028549044302    0.994572836298293    0.521518773915127  0.0000
  O2     O2        0.992409738447058    0.995000036418315    0.256296180789386  0.0000
  O3     O3        0.525692912717260    0.970473772328754    0.277503776010676  0.0000
  O2     O2        0.016787889112743    0.991854735706041    0.753081072691018  0.0000
  O2     O2        0.508886906158451    0.982897027672869    0.769556441952462  0.0000
  O3     O3        0.580764744428967    0.215891577671278    0.092180171219816  0.0000
  O2     O2        0.910005887476689    0.784679607240752    0.112055211162019  0.0000
  O2     O2        0.402788212391751    0.170970326444255    0.889669572226461  0.0000
  O2     O2        0.085769091531786    0.790224659461663    0.924190557353035  0.0000
  O3     O3        0.380264852237067    0.833301673832159    0.864242813585022  0.0000
  O2     O2        0.123712531840999    0.126531042985544    0.895908102830717  0.0000
  O3     O3        0.639608254897289    0.868554578573445    0.105241727931135  0.0000
  O3     O3        0.869344437576021    0.115492278613713    0.135222492318833  0.0000
  O3     O3        0.487098676388213    0.928645135460389    0.015906755274075  0.0000
  O2     O2        0.990759347507130    0.042895493709801    0.002468268240051  0.0000
  O2     O2        0.137289689628302    0.458103000490862    0.318085308641255  0.0000
  O3     O3        0.370506456398156    0.480263944913267    0.299949070975261  0.0000
  O2     O2        0.871680444192528    0.465508921567044    0.702409162526281  0.0000
  O2     O2        0.641714570242687    0.517165869416981    0.688947681413670  0.0000
  O2     O2        0.258703494911296    0.243809658652053    0.320254751654490  0.0000
  O3     O3        0.243917886388132    0.704664396334093    0.346215349178900  0.0000
  O2     O2        0.749045444589401    0.264660352961880    0.673962035386874  0.0000
  O2     O2        0.765380698962432    0.719531578860673    0.680856664337088  0.0000
  O2     O2        0.155422367248004    0.217793383268868    0.134004719905603  0.0000
  O1     O1        0.342865044437958    0.768396573501205    0.131907215234202  0.0000
  O3     O3        0.840792288503237    0.208111105638220    0.870109644015513  0.0000
  O2     O2        0.663109347683862    0.766063891445688    0.866941264043099  0.0000
  O2     O2        0.869474837572350    0.719439442738286    0.872536599052374  0.0000
  O2     O2        0.649845858334051    0.274670997910350    0.869416215585054  0.0000
  O2     O2        0.159416207019339    0.700482951005565    0.140048178676815  0.0000
  O2     O2        0.362569984412543    0.230424907120223    0.129090606092094  0.0000
  O2     O2        0.629475735018257    0.531236278093214    0.041877685136140  0.0000
  O3     O3        0.877541709426932    0.464677401230480    0.048362295921643  0.0000
  O3     O3        0.372673426737702    0.491277785372869    0.963145783437774  0.0000
  O2     O2        0.128825903746598    0.463650854509417    0.959758450119201  0.0000
  O3     O3        0.732984066472288    0.277515371813460    0.077106994246943  0.0000
  O2     O2        0.764305828791991    0.689745216273658    0.054263561574365  0.0000
  O2     O2        0.257268473500087    0.271107999729193    0.945478300094196  0.0000
  O3     O3        0.236376179901484    0.703481104582531    0.926171930294656  0.0000
