data_c01073.vasp
_audit_creation_method             Generated by GULP
_audit_author_name                 Salvador R. G. Balestra
_symmetry_space_group_name_H-M     'P 1             '
_symmetry_Int_Tables_number        1

loop_
_symmetry_equiv_pos_site_id
_symmetry_equiv_pos_as_xyz
_cell_length_a                       17.1480
_cell_length_b                        7.6209
_cell_length_c                       10.2434
_cell_angle_alpha                   88.4155
_cell_angle_beta                    90.5037
_cell_angle_gamma                   89.9856

loop_
_atom_site_label
_atom_site_type_symbol
_atom_site_fract_x
_atom_site_fract_y
_atom_site_fract_z
_atom_site_charge
  Ge     Ge        0.556730000000016    0.000000000000000    0.122129999999970  0.0000
  Ge     Ge        0.833978137832344    0.299392959983404    0.712159453866655  0.0000
  Ge     Ge        0.645809315441124    0.331961640461519    0.721083383353388  0.0000
  Ge     Ge        0.348882750373659    0.334497078301628    0.979203396718143  0.0000
  Si     Si        0.049075389670374    0.987085812360283    0.378241745789876  0.0000
  Si     Si        0.444355491567397    0.997825130179557    0.374170067698709  0.0000
  Si     Si        0.951258686199284    0.013118974609432    0.634817103075936  0.0000
  Si     Si        0.542905787597537    0.024930375343180    0.630274458245208  0.0000
  Si     Si        0.942214049398058    0.990651875204774    0.131318536256162  0.0000
  Si     Si        0.443642664154453    0.019685204689842    0.879020630941863  0.0000
  Si     Si        0.053782970371963    0.014570906336384    0.892741580500320  0.0000
  Si     Si        0.163766805541756    0.283066355643349    0.280348513584632  0.0000
  Si     Si        0.330844073255135    0.712502834237335    0.293357842525340  0.0000
  Si     Si        0.663419704221288    0.744307147397446    0.735272912462523  0.0000
  Si     Si        0.843927791297107    0.708787765474042    0.723851986468532  0.0000
  Si     Si        0.150915263892414    0.684868055240287    0.286505569202860  0.0000
  Si     Si        0.342450275064811    0.308846661698606    0.290883907561649  0.0000
  Si     Si        0.652424539226666    0.319089507546308    0.030165327602851  0.0000
  Si     Si        0.850540880009910    0.678506539010123    0.028326500274516  0.0000
  Si     Si        0.150513697244120    0.698525428884110    0.982794708296583  0.0000
  Si     Si        0.331257989831372    0.738310253655523    0.987826502098546  0.0000
  Si     Si        0.166358423665830    0.302562398095826    0.973136511895812  0.0000
  Si     Si        0.671796937388551    0.717785520740121    0.038293915901563  0.0000
  Si     Si        0.833603691098410    0.279709105474047    0.023431924616759  0.0000
  O2     O2        0.110641036323731    0.144004881911984    0.357065691418517  0.0000
  O2     O2        0.380541390371876    0.840835451841046    0.383884938385550  0.0000
  O3     O3        0.893413706113807    0.175889748399439    0.616313254938213  0.0000
  O2     O2        0.616460033191570    0.896136493054334    0.657225011559364  0.0000
  O2     O2        0.898066781435686    0.839196332292333    0.640123459648830  0.0000
  O3     O3        0.576104136089893    0.220638451795410    0.633327396538755  0.0000
  O2     O2        0.093071882570976    0.800430307960135    0.371077558954713  0.0000
  O2     O2        0.400234719965877    0.185361775800026    0.377899315374132  0.0000
  O2     O2        0.013353355860109    0.001161541273481    0.520464838359162  0.0000
  O2     O2        0.506723186629307    0.983000175665270    0.490369131758244  0.0000
  O2     O2        0.978694003425716    0.001139835161910    0.274661803108828  0.0000
  O3     O3        0.490943283421164    0.972841286078813    0.242907685980444  0.0000
  O2     O2        0.998682039184328    0.036022641459534    0.768678194011879  0.0000
  O2     O2        0.473495327076315    0.993564645557540    0.732997122635507  0.0000
  O3     O3        0.597934335793384    0.206567382624232    0.125604099799309  0.0000
  O2     O2        0.909347457062525    0.794006807320751    0.113320627125750  0.0000
  O3     O3        0.418217422154513    0.220274104979507    0.896778042097933  0.0000
  O2     O2        0.095731370470229    0.824676719477998    0.894098998860161  0.0000
  O2     O2        0.367153821515650    0.899950267565726    0.905722702590893  0.0000
  O2     O2        0.117831389485757    0.168697512011442    0.886655390661562  0.0000
  O3     O3        0.630126544400160    0.844321021762964    0.135386474702206  0.0000
  O2     O2        0.874051109130444    0.135480828907557    0.118966015898086  0.0000
  O3     O3        0.511076665122173    0.958157777542710    0.976621227040026  0.0000
  O2     O2        0.006271280165933    0.039647720405639    0.024329648649007  0.0000
  O2     O2        0.133095538489992    0.478644033390774    0.309677028187289  0.0000
  O2     O2        0.360318516672475    0.512864991079795    0.317753547574247  0.0000
  O3     O3        0.865029597136777    0.513076894111692    0.690697753966792  0.0000
  O3     O3        0.628061042602489    0.555379777014510    0.707458851329863  0.0000
  O2     O2        0.253214004216768    0.264001645874167    0.328749754452478  0.0000
  O2     O2        0.239716396741843    0.726000120278244    0.328670317737376  0.0000
  O1     O1        0.737763073694512    0.286958245581410    0.668266023007656  0.0000
  O2     O2        0.753299073043748    0.747758675076774    0.688413244617799  0.0000
  O2     O2        0.162475175503515    0.247995115473128    0.126367364277609  0.0000
  O2     O2        0.341739933409992    0.770162414103526    0.142229022600541  0.0000
  O3     O3        0.842236790086967    0.229781340873479    0.874042636168583  0.0000
  O2     O2        0.661818177566272    0.787376791738435    0.888619882871261  0.0000
  O2     O2        0.858577623061909    0.739849246422625    0.877603207344890  0.0000
  O3     O3        0.634829507423258    0.264787261555882    0.882659216962493  0.0000
  O2     O2        0.136579620409970    0.738066040180496    0.134713753448288  0.0000
  O3     O3        0.358399213322584    0.269748294420793    0.141132719995605  0.0000
  O2     O2        0.634157223884490    0.523857481752082    0.049392321870440  0.0000
  O2     O2        0.871555814569096    0.472419169827070    0.045293479706713  0.0000
  O3     O3        0.370463444039519    0.554611060547922    0.956019913214780  0.0000
  O2     O2        0.129996118817439    0.497663612456416    0.952103967967337  0.0000
  O2     O2        0.743149285745361    0.282174214342082    0.061487677105356  0.0000
  O2     O2        0.762947074595067    0.709725133167049    0.076574718039146  0.0000
  O3     O3        0.254756268037321    0.298560826022835    0.926890759335753  0.0000
  O2     O2        0.240387930250859    0.732421957682786    0.949190295274794  0.0000
