data_c01065.vasp
_audit_creation_method             Generated by GULP
_audit_author_name                 Salvador R. G. Balestra
_symmetry_space_group_name_H-M     'P 1             '
_symmetry_Int_Tables_number        1

loop_
_symmetry_equiv_pos_site_id
_symmetry_equiv_pos_as_xyz
_cell_length_a                       17.0319
_cell_length_b                        7.5933
_cell_length_c                       10.3004
_cell_angle_alpha                   89.0356
_cell_angle_beta                    89.5957
_cell_angle_gamma                   91.4049

loop_
_atom_site_label
_atom_site_type_symbol
_atom_site_fract_x
_atom_site_fract_y
_atom_site_fract_z
_atom_site_charge
  Ge     Ge        0.556730000000016    0.000000000000000    0.122129999999970  0.0000
  Ge     Ge        0.853978536797325    0.358844385841919    0.693649562034891  0.0000
  Ge     Ge        0.647447482573958    0.714827515880853    0.707644791503123  0.0000
  Ge     Ge        0.645163294518376    0.674376725546764    0.021300910681382  0.0000
  Si     Si        0.046084002673189    0.022195536755460    0.349500781212348  0.0000
  Si     Si        0.447625484328886    0.035065199166235    0.368135999989518  0.0000
  Si     Si        0.954693143404364    0.051001675131398    0.612515272251388  0.0000
  Si     Si        0.545548026334093    0.025254553824499    0.622390145170418  0.0000
  Si     Si        0.942433377100677    0.027196326085027    0.096220186641940  0.0000
  Si     Si        0.446084824868829    0.045835028992089    0.879338877683453  0.0000
  Si     Si        0.058433549686292    0.034318923779863    0.860559546212924  0.0000
  Si     Si        0.152185141536380    0.335861275860984    0.267223182366339  0.0000
  Si     Si        0.344024058431337    0.726018151726792    0.268669938321458  0.0000
  Si     Si        0.829008566008693    0.763705326965410    0.707969114598596  0.0000
  Si     Si        0.669193069181254    0.303363311470848    0.695465246712018  0.0000
  Si     Si        0.162618782480975    0.741765066585219    0.265768767935994  0.0000
  Si     Si        0.332753930297935    0.319865024734927    0.267662649496937  0.0000
  Si     Si        0.673766286028151    0.274686295808036    0.998643688362996  0.0000
  Si     Si        0.826416074638762    0.733557906569847    0.016399275460238  0.0000
  Si     Si        0.334133951957818    0.326721679963042    0.964335426050787  0.0000
  Si     Si        0.166370018558549    0.748475175046035    0.963404044051175  0.0000
  Si     Si        0.348143612990144    0.726290523203095    0.966662440615269  0.0000
  Si     Si        0.153191532162376    0.348518397703182    0.964272008437398  0.0000
  Si     Si        0.855148477773841    0.346292126292394    0.000607810189119  0.0000
  O2     O2        0.091979474216259    0.211372033917266    0.349314296076818  0.0000
  O2     O2        0.403074917576226    0.845814171823179    0.351378828025072  0.0000
  O3     O3        0.921928148872661    0.245996520304530    0.604428887581633  0.0000
  O3     O3        0.580445220921435    0.832830354688982    0.618297028932255  0.0000
  O2     O2        0.879579513408032    0.926681589004949    0.648988008796110  0.0000
  O2     O2        0.618826483271605    0.165205126022401    0.610198609753430  0.0000
  O2     O2        0.109984679372099    0.868680417868501    0.350531873998464  0.0000
  O2     O2        0.385349617474474    0.189527168284797    0.350599470053491  0.0000
  O2     O2        0.992226274454280    0.999223048445993    0.476010437608740  0.0000
  O2     O2        0.481706598841964    0.049960883199144    0.511294182452078  0.0000
  O2     O2        0.990661849030507    0.002247935756281    0.226296855293658  0.0000
  O3     O3        0.520808032352696    0.054246525184616    0.271655622190760  0.0000
  O2     O2        0.022148497878767    0.027392077323524    0.718992443579910  0.0000
  O2     O2        0.501571118933904    0.065512550963996    0.756137602654193  0.0000
  O3     O3        0.644553377406635    0.112679748916083    0.086136021867500  0.0000
  O2     O2        0.871278089969945    0.884843707486907    0.095496260944737  0.0000
  O2     O2        0.379051651791620    0.193048379397180    0.873776781709743  0.0000
  O2     O2        0.124769537483501    0.887328686564958    0.870417452706081  0.0000
  O2     O2        0.406355102618112    0.849404433091955    0.880778630646783  0.0000
  O2     O2        0.096053347708474    0.228969175119589    0.878613953188271  0.0000
  O1     O1        0.578796924680034    0.782489540921175    0.115668412830459  0.0000
  O2     O2        0.909237147061564    0.224497188473230    0.091400740351077  0.0000
  O3     O3        0.492987693853290    0.080423122555822    0.008672662362267  0.0000
  O2     O2        0.994270595197652    0.987867267983530    0.970190118021383  0.0000
  O2     O2        0.136106354322240    0.539703140679942    0.296071421333989  0.0000
  O2     O2        0.359312527929016    0.520665663405815    0.297734410418750  0.0000
  O3     O3        0.870460577979956    0.582862674444226    0.674634743280881  0.0000
  O3     O3        0.630940979447121    0.492586559499584    0.684709323989994  0.0000
  O2     O2        0.241270198666962    0.290838860194253    0.305769100665561  0.0000
  O2     O2        0.254062256489192    0.769947148320736    0.301966223739187  0.0000
  O3     O3        0.758701074322562    0.313664794081004    0.646272741014080  0.0000
  O3     O3        0.741746137792250    0.766868338337991    0.652387293616805  0.0000
  O2     O2        0.138871176836326    0.298738126693814    0.115304321013440  0.0000
  O2     O2        0.363272049832173    0.770122236474936    0.117624690079019  0.0000
  O3     O3        0.871389826055651    0.296835325714946    0.852903616458747  0.0000
  O1     O1        0.633158050427062    0.760164550212549    0.867501774621986  0.0000
  O2     O2        0.817391215109863    0.779747318623733    0.863636653176860  0.0000
  O2     O2        0.669757807574690    0.234198764045186    0.845195013609206  0.0000
  O2     O2        0.151753568068098    0.791105888847348    0.114220401497091  0.0000
  O2     O2        0.344082016638466    0.278142362021159    0.116134168562135  0.0000
  O3     O3        0.625421432605239    0.450244311514945    0.026213982797660  0.0000
  O2     O2        0.874965838759710    0.551775182161752    0.028542698102881  0.0000
  O2     O2        0.368221776328707    0.524651138017374    0.938074420444085  0.0000
  O2     O2        0.133444131006172    0.551767027155825    0.935331263682337  0.0000
  O2     O2        0.763880572897841    0.315825147935161    0.034954084130922  0.0000
  O3     O3        0.740215453058997    0.712650431382247    0.075390840533681  0.0000
  O2     O2        0.242999269798628    0.314520554149310    0.926429833326490  0.0000
  O2     O2        0.258575295139696    0.762781689309864    0.931219059241119  0.0000
