data_c01091.vasp
_audit_creation_method             Generated by GULP
_audit_author_name                 Salvador R. G. Balestra
_symmetry_space_group_name_H-M     'P 1             '
_symmetry_Int_Tables_number        1

loop_
_symmetry_equiv_pos_site_id
_symmetry_equiv_pos_as_xyz
_cell_length_a                       16.9426
_cell_length_b                        7.5960
_cell_length_c                       10.3685
_cell_angle_alpha                   89.5600
_cell_angle_beta                    90.5918
_cell_angle_gamma                   91.0897

loop_
_atom_site_label
_atom_site_type_symbol
_atom_site_fract_x
_atom_site_fract_y
_atom_site_fract_z
_atom_site_charge
  Ge     Ge        0.556730000000016    0.000000000000000    0.122129999999970  0.0000
  Ge     Ge        0.851779520362513    0.343589854529468    0.715354190081758  0.0000
  Ge     Ge        0.826936107878520    0.764393881219467    0.026235009039722  0.0000
  Ge     Ge        0.860239294482872    0.356686873278210    0.025312793202968  0.0000
  Si     Si        0.052699388070945    0.008546801834492    0.378242206999278  0.0000
  Si     Si        0.454109058143914    0.012142227673432    0.374714715728189  0.0000
  Si     Si        0.950683213887637    0.033337140185018    0.629400912284580  0.0000
  Si     Si        0.545701431431698    0.007860037563132    0.640343135575374  0.0000
  Si     Si        0.942557552490754    0.036685928901505    0.133725240740206  0.0000
  Si     Si        0.438098618346483    0.023316532453641    0.886783683937026  0.0000
  Si     Si        0.046707979153713    0.010050935688565    0.891265996380844  0.0000
  Si     Si        0.155925818808009    0.318231486294836    0.287816678077526  0.0000
  Si     Si        0.347664500791809    0.704560988552529    0.278935564698818  0.0000
  Si     Si        0.648475309833193    0.698003060215224    0.721322207240921  0.0000
  Si     Si        0.828397051454761    0.758178184033350    0.721310222293600  0.0000
  Si     Si        0.668699789716809    0.298336883403939    0.713942932861733  0.0000
  Si     Si        0.165669328603582    0.723344886611311    0.286851640364957  0.0000
  Si     Si        0.337400275989636    0.299104499773917    0.276858914472112  0.0000
  Si     Si        0.675682898003640    0.288047999375592    0.017783367694179  0.0000
  Si     Si        0.328233263158731    0.304445193927396    0.975779310862837  0.0000
  Si     Si        0.159739332443142    0.725980368986858    0.986438400348098  0.0000
  Si     Si        0.342280692794390    0.704482136325181    0.978856386587795  0.0000
  Si     Si        0.146250292904031    0.325275693026577    0.987612369521708  0.0000
  Si     Si        0.644334294816078    0.677542101638347    0.022916117632052  0.0000
  O2     O2        0.099364736202380    0.195878790002662    0.374793140710741  0.0000
  O2     O2        0.408901700259395    0.824207832650828    0.358853115216993  0.0000
  O3     O3        0.917797437045081    0.228757768212530    0.622578859011710  0.0000
  O2     O2        0.586178132957228    0.817103845635573    0.643540383492750  0.0000
  O2     O2        0.875226632994969    0.899409328571807    0.632235336792981  0.0000
  O2     O2        0.613461854364638    0.159139028404301    0.638328679215419  0.0000
  O2     O2        0.115446891254020    0.851551166809667    0.374545605063900  0.0000
  O2     O2        0.391919778476080    0.168664380484368    0.357255200763962  0.0000
  O2     O2        0.003909928536132    0.992168216937876    0.507616285003384  0.0000
  O2     O2        0.490126660673303    0.022908260943426    0.516694333288088  0.0000
  O2     O2        0.992433206201108    0.988901706968548    0.259555454067132  0.0000
  O3     O3        0.525025290776198    0.031352293955433    0.276206069828858  0.0000
  O2     O2        0.005083607888954    0.998306147542894    0.754173309654072  0.0000
  O2     O2        0.491220421712927    0.037552386380771    0.762440266104511  0.0000
  O3     O3        0.640427674674106    0.127559546531204    0.098039023548364  0.0000
  O3     O3        0.860959377871215    0.926965996140640    0.128708265528017  0.0000
  O2     O2        0.370076336927759    0.170261225240684    0.881428773125438  0.0000
  O2     O2        0.113917183668053    0.863121372858051    0.897503492054274  0.0000
  O2     O2        0.398375450968967    0.828032455086685    0.892362741772236  0.0000
  O2     O2        0.085184262773768    0.205420365072476    0.906976355912845  0.0000
  O3     O3        0.579147365160526    0.781506902179630    0.099387072251990  0.0000
  O3     O3        0.924783513869818    0.241707177309359    0.124513888104053  0.0000
  O3     O3        0.487593343799174    0.070087543711381    0.013057174034016  0.0000
  O2     O2        0.985562884140857    0.966816406960942    0.004547491264298  0.0000
  O2     O2        0.139453615448464    0.522034820977855    0.317093250002399  0.0000
  O2     O2        0.364990799434259    0.499729770176634    0.305346048267874  0.0000
  O3     O3        0.867592521336137    0.569028362823170    0.710391452498421  0.0000
  O2     O2        0.630807422080695    0.491683287639936    0.695639104225387  0.0000
  O2     O2        0.246633137578997    0.273293897021185    0.319453689958638  0.0000
  O2     O2        0.258463653347269    0.748716717768688    0.318783057912339  0.0000
  O3     O3        0.756572197340137    0.299445778706199    0.660163443856179  0.0000
  O2     O2        0.736949106784090    0.744328403437371    0.673682057544729  0.0000
  O2     O2        0.136370944894450    0.277145140842080    0.138345291830801  0.0000
  O2     O2        0.360821403396399    0.749008398751299    0.128190905577814  0.0000
  O1     O1        0.869843162814034    0.280363847718287    0.871057480320996  0.0000
  O2     O2        0.640648041026369    0.739247507431511    0.872648442399614  0.0000
  O3     O3        0.828631121758887    0.828429406446650    0.866241620409585  0.0000
  O2     O2        0.676748946097494    0.245405342055188    0.864907568118408  0.0000
  O2     O2        0.150442663177044    0.771302086662151    0.137067843822383  0.0000
  O2     O2        0.343925800022485    0.255965716169388    0.125554281556103  0.0000
  O2     O2        0.626628511547051    0.468134318685377    0.036567191128129  0.0000
  O1     O1        0.880488470639824    0.575434573523840    0.040796832012069  0.0000
  O2     O2        0.360738597087278    0.502204055930000    0.948303544256806  0.0000
  O2     O2        0.125647752897416    0.528864585680762    0.961115712669019  0.0000
  O3     O3        0.763283853794804    0.321835998484804    0.069281682901195  0.0000
  O3     O3        0.731282840142207    0.722920332520861    0.075102801636343  0.0000
  O2     O2        0.235218598567992    0.290437796966736    0.944857520616935  0.0000
  O2     O2        0.251038185323966    0.740559849123430    0.947646767699570  0.0000
