data_c01020.vasp
_audit_creation_method             Generated by GULP
_audit_author_name                 Salvador R. G. Balestra
_symmetry_space_group_name_H-M     'P 1             '
_symmetry_Int_Tables_number        1

loop_
_symmetry_equiv_pos_site_id
_symmetry_equiv_pos_as_xyz
_cell_length_a                       17.1204
_cell_length_b                        7.6026
_cell_length_c                       10.2790
_cell_angle_alpha                   89.5377
_cell_angle_beta                    89.8273
_cell_angle_gamma                   89.7356

loop_
_atom_site_label
_atom_site_type_symbol
_atom_site_fract_x
_atom_site_fract_y
_atom_site_fract_z
_atom_site_charge
  Ge     Ge        0.556730000000016    0.000000000000000    0.122129999999970  0.0000
  Ge     Ge        0.330945512869883    0.707755722323570    0.292201754494029  0.0000
  Ge     Ge        0.650961943531672    0.326524969592613    0.725428897963896  0.0000
  Ge     Ge        0.151107000211269    0.661959228459740    0.973434557634755  0.0000
  Si     Si        0.046387078777000    0.983804586260501    0.371698411534365  0.0000
  Si     Si        0.448468811867288    0.990575335821805    0.379110380648721  0.0000
  Si     Si        0.951261779976146    0.002164772501494    0.635616647545536  0.0000
  Si     Si        0.548302339667652    0.020741493000042    0.631531255710754  0.0000
  Si     Si        0.944619369213656    0.987911164876180    0.120131140129523  0.0000
  Si     Si        0.445832778821144    0.990504440342034    0.879403868862365  0.0000
  Si     Si        0.057697103487596    0.982409075198746    0.881253998032316  0.0000
  Si     Si        0.164505885371255    0.268480301854120    0.285277238578258  0.0000
  Si     Si        0.833778153654519    0.291307403843906    0.717610855374657  0.0000
  Si     Si        0.668032062331091    0.739674464438471    0.737090390987633  0.0000
  Si     Si        0.847447473833179    0.694555786627120    0.727823844106925  0.0000
  Si     Si        0.148408627339070    0.674483903328718    0.284541943085654  0.0000
  Si     Si        0.344961652943062    0.297235009917468    0.294884849321347  0.0000
  Si     Si        0.652045863171694    0.319363306861529    0.032930264015231  0.0000
  Si     Si        0.852942567928965    0.671484193438978    0.030862831107687  0.0000
  Si     Si        0.350277961101542    0.301535740990364    0.992528086346738  0.0000
  Si     Si        0.333752722066239    0.703677235307067    0.981404000139643  0.0000
  Si     Si        0.170473206180721    0.258145980929564    0.981449896045369  0.0000
  Si     Si        0.674029331787860    0.718913750530394    0.039326250520378  0.0000
  Si     Si        0.832216006169844    0.276447119688033    0.023360479030016  0.0000
  O2     O2        0.113851418728911    0.131537560594781    0.368718543733614  0.0000
  O3     O3        0.384938505419258    0.838352857256796    0.392487027673583  0.0000
  O2     O2        0.888983879715243    0.161582029735187    0.635931590195103  0.0000
  O2     O2        0.620324317467310    0.887668634554734    0.658766048266432  0.0000
  O2     O2        0.906421790307485    0.816946915601568    0.647410381298195  0.0000
  O3     O3        0.583273037980689    0.214798016632736    0.634866992183535  0.0000
  O2     O2        0.085039441597862    0.790215975748794    0.363490051235651  0.0000
  O2     O2        0.401736778549128    0.176119163556712    0.381817715872422  0.0000
  O2     O2        0.999083546259492    0.003144053572131    0.503546891220816  0.0000
  O2     O2        0.513972097513886    0.984540698834179    0.489471204658930  0.0000
  O2     O2        0.985407339811553    0.017486667728387    0.256561424444072  0.0000
  O3     O3        0.491182270138317    0.961456575258078    0.242528873872354  0.0000
  O2     O2        0.012945811839400    0.030346687806153    0.750253032666020  0.0000
  O2     O2        0.477414264795244    0.994006961896727    0.732491739413766  0.0000
  O3     O3        0.594816999330491    0.210039386202542    0.125386384039039  0.0000
  O2     O2        0.912820924622412    0.787829808609443    0.113617005310623  0.0000
  O2     O2        0.410031688850968    0.183147649532733    0.911115511235533  0.0000
  O3     O3        0.086038757029781    0.782120225192637    0.881195067452578  0.0000
  O2     O2        0.381423941440621    0.837628860429249    0.890215264027397  0.0000
  O2     O2        0.134740311939025    0.103661675374983    0.895031572056334  0.0000
  O3     O3        0.633321583418011    0.850851283415030    0.135768885533982  0.0000
  O2     O2        0.873501640366134    0.125532576579634    0.107609087629004  0.0000
  O3     O3        0.515316527302279    0.947150012751635    0.975654901086158  0.0000
  O2     O2        0.004125773380784    0.028111703680557    0.004293588472983  0.0000
  O2     O2        0.131876994812467    0.466044318711224    0.304202674006948  0.0000
  O3     O3        0.365539030630258    0.496956329822958    0.317722081252648  0.0000
  O2     O2        0.863562274795019    0.491006851828010    0.694821334796077  0.0000
  O3     O3        0.633616049924573    0.549228563668473    0.708825561476454  0.0000
  O2     O2        0.254485068498804    0.258885820442973    0.331710927682637  0.0000
  O3     O3        0.233966750137574    0.717618191815509    0.336361185982640  0.0000
  O3     O3        0.744818216246892    0.278612723035061    0.673473008866213  0.0000
  O2     O2        0.758566577497928    0.744554570422394    0.691047328025410  0.0000
  O2     O2        0.160660675614526    0.214668746653458    0.134483428310800  0.0000
  O3     O3        0.336939436111784    0.766827126298765    0.129983772503452  0.0000
  O2     O2        0.837678181816376    0.237586449495456    0.869983699855626  0.0000
  O2     O2        0.665272782968596    0.784291285509296    0.890021137172126  0.0000
  O2     O2        0.862987888555502    0.727135660398073    0.880200379996738  0.0000
  O3     O3        0.636929467448979    0.262427913539939    0.885128055142899  0.0000
  O3     O3        0.140861195085130    0.723721182824804    0.133413641515503  0.0000
  O2     O2        0.359607601835666    0.247604522460005    0.143627511250770  0.0000
  O2     O2        0.635267501922721    0.525958889966954    0.051245030205466  0.0000
  O2     O2        0.872506752274881    0.465162342541088    0.051756245713177  0.0000
  O2     O2        0.371227816908275    0.506682135338095    0.973507233508152  0.0000
  O3     O3        0.129892518022188    0.443109912026550    0.950529416230646  0.0000
  O2     O2        0.742353129558022    0.278478536579122    0.067300276047983  0.0000
  O2     O2        0.765023202066120    0.707949411345485    0.077155541084297  0.0000
  O2     O2        0.262080258457595    0.268800059227774    0.945956203934760  0.0000
  O3     O3        0.246526481052310    0.698711667258487    0.928682247022273  0.0000
