data_c01074.vasp
_audit_creation_method             Generated by GULP
_audit_author_name                 Salvador R. G. Balestra
_symmetry_space_group_name_H-M     'P 1             '
_symmetry_Int_Tables_number        1

loop_
_symmetry_equiv_pos_site_id
_symmetry_equiv_pos_as_xyz
_cell_length_a                       17.1335
_cell_length_b                        7.6355
_cell_length_c                       10.2776
_cell_angle_alpha                   88.7801
_cell_angle_beta                    89.9461
_cell_angle_gamma                   89.9187

loop_
_atom_site_label
_atom_site_type_symbol
_atom_site_fract_x
_atom_site_fract_y
_atom_site_fract_z
_atom_site_charge
  Ge     Ge        0.556730000000016    0.000000000000000    0.122129999999970  0.0000
  Ge     Ge        0.843121412825359    0.340672690211835    0.707128870116799  0.0000
  Ge     Ge        0.655632930312740    0.312007662776887    0.723704821529376  0.0000
  Ge     Ge        0.166162392629959    0.728824381766349    0.978979173233474  0.0000
  Si     Si        0.046982715925278    0.005299064179223    0.378387162465415  0.0000
  Si     Si        0.442643329583799    0.991885635225171    0.374173289352814  0.0000
  Si     Si        0.947317562784830    0.034925984517089    0.632890154975066  0.0000
  Si     Si        0.539025808731678    0.020428075253438    0.633940318092636  0.0000
  Si     Si        0.946240275679948    0.002301090999011    0.123263557967483  0.0000
  Si     Si        0.441165651722893    0.007346916410282    0.885937135898088  0.0000
  Si     Si        0.055921030073402    0.017304080397551    0.882980557143047  0.0000
  Si     Si        0.149250041635403    0.313411595382441    0.288084206723251  0.0000
  Si     Si        0.339847984463597    0.684516892410248    0.295236291681459  0.0000
  Si     Si        0.650218342723025    0.723642822023844    0.739789859270297  0.0000
  Si     Si        0.831751138625353    0.746606913907850    0.727881661289690  0.0000
  Si     Si        0.161271049453778    0.718288578288105    0.288737716615622  0.0000
  Si     Si        0.329359577771776    0.284832237799389    0.294917070231212  0.0000
  Si     Si        0.670951288021739    0.285878051880102    0.030618268843692  0.0000
  Si     Si        0.835661490949133    0.715990948890545    0.031646570484444  0.0000
  Si     Si        0.331044699635020    0.292478576202186    0.991019050218334  0.0000
  Si     Si        0.348083067283277    0.687880889431885    0.988542010585309  0.0000
  Si     Si        0.149301823224149    0.325582891603173    0.986454366882590  0.0000
  Si     Si        0.655685050086637    0.687549093321163    0.039295068827526  0.0000
  Si     Si        0.850748859124076    0.318568614203702    0.018409934716208  0.0000
  O2     O2        0.091700128437712    0.191860774385459    0.373661814315978  0.0000
  O2     O2        0.399155923473362    0.804043106110073    0.374871962122779  0.0000
  O3     O3        0.909066905779091    0.224069617785566    0.615551321157040  0.0000
  O2     O2        0.597846646348251    0.859338794180863    0.658785371953401  0.0000
  O2     O2        0.875149948652685    0.899781502594876    0.647737874230381  0.0000
  O3     O3        0.588491004240197    0.196920260482511    0.635470286765014  0.0000
  O2     O2        0.108735926348828    0.846226633755980    0.374407518427299  0.0000
  O2     O2        0.378069796614287    0.146689042960848    0.381896896424546  0.0000
  O2     O2        0.000978471989528    0.985784585231341    0.512472470903152  0.0000
  O2     O2        0.501171236615192    0.997207059430646    0.493696637275630  0.0000
  O2     O2        0.984400387806699    0.993693582155072    0.264069481632269  0.0000
  O3     O3        0.491638230471731    0.023025713121928    0.244638049450760  0.0000
  O2     O2        0.000418629618168    0.022991029005278    0.760507448148940  0.0000
  O2     O2        0.468356026527741    0.020021216862117    0.737064473803485  0.0000
  O3     O3        0.629882285993311    0.155153926740321    0.130635018581308  0.0000
  O2     O2        0.880997902627378    0.850617899449762    0.121523139251256  0.0000
  O2     O2        0.371181330435404    0.146325554481499    0.904598398329977  0.0000
  O3     O3        0.122463677183694    0.872431036788873    0.871538245149031  0.0000
  O2     O2        0.413043350571956    0.809102050968219    0.919462499896468  0.0000
  O2     O2        0.095713253952404    0.207023697272327    0.896650248662709  0.0000
  O3     O3        0.598752024363487    0.793553666582185    0.131099503917973  0.0000
  O2     O2        0.909369272353210    0.194582864079190    0.100410127681802  0.0000
  O3     O3        0.511961116143959    0.055146031708806    0.977135256326746  0.0000
  O2     O2        0.009671096593894    0.959390569744959    0.013702931902244  0.0000
  O2     O2        0.130979251766217    0.518449549230131    0.307916029145212  0.0000
  O2     O2        0.359056132223004    0.480662183996378    0.325188603792439  0.0000
  O3     O3        0.865132653869058    0.560333929358102    0.688943437358494  0.0000
  O3     O3        0.624786352077689    0.527582409582423    0.714865683022426  0.0000
  O2     O2        0.237965850291953    0.269861045001616    0.329888807183134  0.0000
  O2     O2        0.251136484315353    0.727732363894062    0.336105422455792  0.0000
  O1     O1        0.748798824479207    0.301376172709383    0.663099769850577  0.0000
  O2     O2        0.739794954519217    0.751417062087485    0.694522256936006  0.0000
  O2     O2        0.136128045237167    0.268409889106474    0.137234312956875  0.0000
  O2     O2        0.350337503626805    0.725966145579728    0.142214123080821  0.0000
  O3     O3        0.858287190396548    0.277131177194110    0.867850548807688  0.0000
  O2     O2        0.641638694986465    0.764845267815706    0.893030668939260  0.0000
  O2     O2        0.842531603865588    0.778117981401416    0.881588843073807  0.0000
  O3     O3        0.659150247598047    0.231654784738678    0.881874065544940  0.0000
  O3     O3        0.156759364546291    0.782837187080937    0.140126694789036  0.0000
  O2     O2        0.341269102975532    0.241991277568819    0.143109725704254  0.0000
  O2     O2        0.636185725515705    0.482066681860678    0.045699016970123  0.0000
  O2     O2        0.872198463756391    0.521105927671476    0.046433173515526  0.0000
  O2     O2        0.368957898484230    0.483937630323402    0.963499777039878  0.0000
  O3     O3        0.126088327095725    0.523865473702184    0.960036237867136  0.0000
  O2     O2        0.762553425505528    0.283959201079883    0.064722167804858  0.0000
  O2     O2        0.745957345055133    0.716502918457949    0.077777659072689  0.0000
  O2     O2        0.240389761415140    0.298826859213770    0.952496520455922  0.0000
  O3     O3        0.263227856192152    0.730270125987653    0.934724523531766  0.0000
