data_c01045.vasp
_audit_creation_method             Generated by GULP
_audit_author_name                 Salvador R. G. Balestra
_symmetry_space_group_name_H-M     'P 1             '
_symmetry_Int_Tables_number        1

loop_
_symmetry_equiv_pos_site_id
_symmetry_equiv_pos_as_xyz
_cell_length_a                       17.0687
_cell_length_b                        7.6062
_cell_length_c                       10.2577
_cell_angle_alpha                   89.0039
_cell_angle_beta                    89.4418
_cell_angle_gamma                   90.0356

loop_
_atom_site_label
_atom_site_type_symbol
_atom_site_fract_x
_atom_site_fract_y
_atom_site_fract_z
_atom_site_charge
  Ge     Ge        0.556730000000016    0.000000000000000    0.122129999999970  0.0000
  Ge     Ge        0.333408350344787    0.717802585870828    0.294340315743459  0.0000
  Ge     Ge        0.357211793257652    0.326001331096841    0.977114520975693  0.0000
  Ge     Ge        0.676954753039137    0.720839916328893    0.027380284672632  0.0000
  Si     Si        0.048429760399696    0.982750639576490    0.367244935170197  0.0000
  Si     Si        0.448856920463581    0.000132077898495    0.379306522850524  0.0000
  Si     Si        0.954961483999390    0.992129186321720    0.633246396067939  0.0000
  Si     Si        0.556509252892621    0.006784948284316    0.624062848336622  0.0000
  Si     Si        0.947108632664537    0.987028159335898    0.117214279713300  0.0000
  Si     Si        0.452270639427394    0.008694117472632    0.872511144305684  0.0000
  Si     Si        0.062232491883782    0.006437793513537    0.882880284002729  0.0000
  Si     Si        0.167232491070087    0.273953100194558    0.271942058605302  0.0000
  Si     Si        0.838181532851014    0.278921954371156    0.717102651455807  0.0000
  Si     Si        0.672155445789083    0.718527104758865    0.719205192256389  0.0000
  Si     Si        0.850681257765030    0.680175430231563    0.714642238062137  0.0000
  Si     Si        0.657915887084155    0.309686429814574    0.724774340408299  0.0000
  Si     Si        0.150348941891955    0.675189365056387    0.283956182055189  0.0000
  Si     Si        0.347869999945326    0.305155258645959    0.285374732229700  0.0000
  Si     Si        0.653612298078606    0.317271917833837    0.025466953602633  0.0000
  Si     Si        0.857801616431583    0.667184416996680    0.022192699042643  0.0000
  Si     Si        0.157231606883116    0.688892021262490    0.979207858067401  0.0000
  Si     Si        0.337873151863552    0.735059052935217    0.985529655993254  0.0000
  Si     Si        0.174053725242866    0.293557418459447    0.965850736893690  0.0000
  Si     Si        0.835798103501529    0.273579108047590    0.021426324642313  0.0000
  O2     O2        0.116310228400032    0.128081649971423    0.347868888956349  0.0000
  O3     O3        0.385918597989355    0.845491287858424    0.399574066302835  0.0000
  O2     O2        0.888802553213618    0.143739245737408    0.633075078963384  0.0000
  O2     O2        0.618475577643163    0.847014932653850    0.631436349626609  0.0000
  O2     O2        0.912364200207820    0.802684755859303    0.636736908032656  0.0000
  O2     O2        0.599635455409117    0.194472760552512    0.638946926895581  0.0000
  O2     O2        0.086281372875959    0.788523325055321    0.362064936757872  0.0000
  O2     O2        0.402524940874852    0.185202643322606    0.378075101617521  0.0000
  O2     O2        0.007724348917074    0.010321219377939    0.505337685242316  0.0000
  O2     O2        0.518132491805303    0.004913620345473    0.482711882862598  0.0000
  O2     O2        0.981817856056245    0.005170255505050    0.259613628917094  0.0000
  O3     O3        0.489121636101526    0.963155782331700    0.240902576998470  0.0000
  O2     O2        0.011663061330960    0.015751301799959    0.754292960195880  0.0000
  O2     O2        0.486225425143553    0.982351000754752    0.727760808643093  0.0000
  O3     O3        0.594931925930960    0.210448103698969    0.118111663757981  0.0000
  O2     O2        0.921968481509061    0.785458556015636    0.093614776794383  0.0000
  O3     O3        0.426541650168131    0.210015322136698    0.891596143995268  0.0000
  O2     O2        0.102159147685040    0.814778040465188    0.893428029287379  0.0000
  O2     O2        0.375433289987920    0.885626777541334    0.892705513952895  0.0000
  O2     O2        0.128088796006109    0.157885980061357    0.876252477528402  0.0000
  O1     O1        0.634378268380856    0.859532126995137    0.133060175799794  0.0000
  O2     O2        0.873107234048035    0.118289402818242    0.107901505763332  0.0000
  O3     O3        0.515984312529595    0.945134628421599    0.974825946524358  0.0000
  O2     O2        0.009910620804272    0.047941985007037    0.009030828876383  0.0000
  O2     O2        0.132395749304500    0.467130188775671    0.300904315693199  0.0000
  O3     O3        0.368461349224339    0.505926818843233    0.307067128692015  0.0000
  O2     O2        0.869018465927035    0.476243049276805    0.686146745307550  0.0000
  O2     O2        0.641271849036312    0.517725428505334    0.706571339569994  0.0000
  O2     O2        0.256608439158743    0.265970968044363    0.321182973843547  0.0000
  O3     O3        0.235567176300198    0.717979625468328    0.337310597575669  0.0000
  O2     O2        0.746696800762333    0.265986636552338    0.680415535508270  0.0000
  O2     O2        0.762553675534265    0.726776624442278    0.669498150160932  0.0000
  O2     O2        0.168782598015885    0.235801732203029    0.118107187517788  0.0000
  O3     O3        0.342705611146707    0.792055251743943    0.135028958272826  0.0000
  O2     O2        0.846149282496616    0.228564507962794    0.869470073244736  0.0000
  O3     O3        0.669443016347573    0.785473345467764    0.865501775299771  0.0000
  O2     O2        0.858357731072897    0.714210377438915    0.868191206744358  0.0000
  O2     O2        0.642878947247514    0.254500292006264    0.875688014393746  0.0000
  O2     O2        0.144942603280894    0.730369111143128    0.131459673978003  0.0000
  O3     O3        0.364965289696630    0.253576681380821    0.136801539364031  0.0000
  O3     O3        0.632120297506237    0.517919349983285    0.040424272427210  0.0000
  O2     O2        0.877517035206509    0.460911734232099    0.047522253918292  0.0000
  O3     O3        0.379169794324796    0.547560699371583    0.967660458178021  0.0000
  O2     O2        0.135867764737104    0.487454708002112    0.948401296408987  0.0000
  O2     O2        0.744730451642682    0.285290011557282    0.061182611768589  0.0000
  O3     O3        0.772813554625983    0.708009828453817    0.076903079869529  0.0000
  O3     O3        0.263631698083212    0.294043926197457    0.920792467991741  0.0000
  O2     O2        0.247712184309530    0.719004918003130    0.942339613480081  0.0000
