data_c01089.vasp
_audit_creation_method             Generated by GULP
_audit_author_name                 Salvador R. G. Balestra
_symmetry_space_group_name_H-M     'P 1             '
_symmetry_Int_Tables_number        1

loop_
_symmetry_equiv_pos_site_id
_symmetry_equiv_pos_as_xyz
_cell_length_a                       17.0750
_cell_length_b                        7.6207
_cell_length_c                       10.2569
_cell_angle_alpha                   89.1977
_cell_angle_beta                    91.0708
_cell_angle_gamma                   89.6837

loop_
_atom_site_label
_atom_site_type_symbol
_atom_site_fract_x
_atom_site_fract_y
_atom_site_fract_z
_atom_site_charge
  Ge     Ge        0.556730000000016    0.000000000000000    0.122129999999970  0.0000
  Ge     Ge        0.827056402636855    0.285597668549881    0.713024031751061  0.0000
  Ge     Ge        0.855649992125343    0.672385549899237    0.029180164802924  0.0000
  Ge     Ge        0.164683116383010    0.286068477056576    0.981762751759637  0.0000
  Si     Si        0.050552890154560    0.998669370949085    0.383212112586073  0.0000
  Si     Si        0.446308679660396    0.008170905454186    0.376140057014756  0.0000
  Si     Si        0.944266332219911    0.998618085841045    0.630962250657307  0.0000
  Si     Si        0.540792919299551    0.021015833309877    0.640360108504619  0.0000
  Si     Si        0.948917072393920    0.990576979438818    0.128957113352181  0.0000
  Si     Si        0.439571102962323    0.006104652830077    0.884835678362254  0.0000
  Si     Si        0.052198325167762    0.005316614156517    0.884506896920481  0.0000
  Si     Si        0.163330909290198    0.287878749901594    0.291835968379830  0.0000
  Si     Si        0.332443213489671    0.720491656015399    0.292272964150283  0.0000
  Si     Si        0.660913958471037    0.729773978148702    0.739680821286261  0.0000
  Si     Si        0.840625312981493    0.697871641718773    0.720630795736936  0.0000
  Si     Si        0.644488406416292    0.325691813309511    0.728686476636184  0.0000
  Si     Si        0.151305470288674    0.693841963333488    0.285279607986075  0.0000
  Si     Si        0.342421469618794    0.319849110554003    0.296744868325931  0.0000
  Si     Si        0.653759063022064    0.319496324553628    0.032303328770386  0.0000
  Si     Si        0.347218838788637    0.322992820967181    0.989579777425772  0.0000
  Si     Si        0.147202033769053    0.690432944162683    0.983645498252468  0.0000
  Si     Si        0.330060124530235    0.719905222816676    0.988081933072989  0.0000
  Si     Si        0.673579292917358    0.714199220431049    0.044185293996478  0.0000
  Si     Si        0.833976664433559    0.266734881406540    0.021659824709285  0.0000
  O2     O2        0.111996714677210    0.158825946602096    0.380854839248997  0.0000
  O2     O2        0.381184658093822    0.854252965649496    0.381005720966567  0.0000
  O3     O3        0.883526965334852    0.158031955719782    0.614319927430500  0.0000
  O2     O2        0.606428556715077    0.871500712711737    0.665362390744698  0.0000
  O2     O2        0.894339218157844    0.819628255794725    0.629270734064322  0.0000
  O2     O2        0.579518560208963    0.213419831462235    0.650881781617621  0.0000
  O2     O2        0.095072041582474    0.812379254218805    0.371341368392367  0.0000
  O2     O2        0.402873795673742    0.197047395039994    0.377854876463688  0.0000
  O2     O2        0.007965299538016    0.997435441793815    0.519654356357700  0.0000
  O2     O2        0.506615727378101    0.994916555110672    0.496225692546730  0.0000
  O2     O2        0.985427565941755    0.026197134215182    0.270440288991846  0.0000
  O3     O3        0.493890242396486    0.980602902844948    0.246871600895456  0.0000
  O2     O2        0.990948600161394    0.019545470636060    0.767034470338255  0.0000
  O2     O2        0.468130092513672    0.004666327186602    0.736965634272881  0.0000
  O3     O3        0.597430202876232    0.206564156438520    0.120483145834579  0.0000
  O3     O3        0.924992606612082    0.788841052167468    0.115580121510628  0.0000
  O2     O2        0.411678823761879    0.202487944089833    0.921775014320334  0.0000
  O2     O2        0.092193279551479    0.812432987297468    0.891418539224099  0.0000
  O2     O2        0.368858958160731    0.867452020131191    0.898213147721910  0.0000
  O3     O3        0.119338690863178    0.148693500852062    0.873887211634227  0.0000
  O3     O3        0.631273636585782    0.847292680011611    0.136939753160081  0.0000
  O2     O2        0.871784105586307    0.112721703136208    0.111595756436983  0.0000
  O3     O3        0.509968239289386    0.946934123447491    0.978272047029939  0.0000
  O2     O2        0.009818651036488    0.050502265289925    0.019325010733636  0.0000
  O2     O2        0.132919710507444    0.488169579283121    0.306884170306706  0.0000
  O2     O2        0.362470704030406    0.522732559868440    0.323761308219964  0.0000
  O3     O3        0.860458640214191    0.497245301224917    0.696282549879069  0.0000
  O2     O2        0.627174045056270    0.534557444436643    0.715173372665508  0.0000
  O2     O2        0.254048030946987    0.277349151244205    0.339356793115638  0.0000
  O2     O2        0.240867216235490    0.735073749530691    0.325321718190850  0.0000
  O3     O3        0.728722907712788    0.282486404006920    0.671304003819150  0.0000
  O2     O2        0.749000157111682    0.738439662007209    0.685268471785541  0.0000
  O3     O3        0.157224686793200    0.226361241856307    0.143670947144839  0.0000
  O2     O2        0.343200759598527    0.768205634519092    0.139664379145663  0.0000
  O3     O3        0.836339965226104    0.211463205106772    0.871863035788592  0.0000
  O2     O2        0.666319613007465    0.775565872171015    0.892278600199736  0.0000
  O3     O3        0.858785239304572    0.745071986144915    0.869718953246168  0.0000
  O2     O2        0.640597235482626    0.268312348703660    0.880721050324172  0.0000
  O2     O2        0.134985326117485    0.744808707875094    0.134018867217093  0.0000
  O2     O2        0.350573294556496    0.280567654381744    0.143996723067144  0.0000
  O2     O2        0.633930731617312    0.522606319047956    0.056073980731023  0.0000
  O3     O3        0.877774960718619    0.451017249190325    0.039025160017331  0.0000
  O2     O2        0.367412091185205    0.528012695121123    0.962776695236738  0.0000
  O3     O3        0.123735878679381    0.492549649820349    0.960791078355493  0.0000
  O2     O2        0.744828276667104    0.286563502414936    0.068203870460268  0.0000
  O3     O3        0.763558325195338    0.705303293954616    0.088580403976696  0.0000
  O3     O3        0.261304295187252    0.283576419336341    0.936257335358785  0.0000
  O2     O2        0.238394815791101    0.716343900408604    0.950884418902217  0.0000
