data_c01048.vasp
_audit_creation_method             Generated by GULP
_audit_author_name                 Salvador R. G. Balestra
_symmetry_space_group_name_H-M     'P 1             '
_symmetry_Int_Tables_number        1

loop_
_symmetry_equiv_pos_site_id
_symmetry_equiv_pos_as_xyz
_cell_length_a                       16.9742
_cell_length_b                        7.5644
_cell_length_c                       10.3628
_cell_angle_alpha                   88.6271
_cell_angle_beta                    90.8587
_cell_angle_gamma                   89.2347

loop_
_atom_site_label
_atom_site_type_symbol
_atom_site_fract_x
_atom_site_fract_y
_atom_site_fract_z
_atom_site_charge
  Ge     Ge        0.556730000000016    0.000000000000000    0.122129999999970  0.0000
  Ge     Ge        0.347334328624612    0.670610651804513    0.288813001408410  0.0000
  Ge     Ge        0.164339367020177    0.765570415856185    0.978850903882136  0.0000
  Ge     Ge        0.138106847572385    0.355122798497657    0.962074654836461  0.0000
  Si     Si        0.044755278699004    0.004750784292947    0.361494717219319  0.0000
  Si     Si        0.448924402204273    0.980010368150338    0.371682185493466  0.0000
  Si     Si        0.942851412708421    0.017272350243358    0.615017415085076  0.0000
  Si     Si        0.540682476789375    0.014330021576535    0.631888914635168  0.0000
  Si     Si        0.947115013985927    0.999513920839103    0.102459868705391  0.0000
  Si     Si        0.439248820405456    0.019694283622088    0.884777361263289  0.0000
  Si     Si        0.051261009405651    0.038895523804422    0.862165363960490  0.0000
  Si     Si        0.146214943664132    0.311750113590774    0.265016385788857  0.0000
  Si     Si        0.841490820634174    0.324457490106123    0.702791671425217  0.0000
  Si     Si        0.646430361822145    0.701765733051538    0.713512328086479  0.0000
  Si     Si        0.827139001971648    0.729881618094237    0.704427013769032  0.0000
  Si     Si        0.659848145159795    0.293458666570570    0.714194186850962  0.0000
  Si     Si        0.163996007466907    0.720846226431179    0.284401444098199  0.0000
  Si     Si        0.325851843292730    0.263432418442221    0.265141236605540  0.0000
  Si     Si        0.670767304920128    0.280483602100202    0.013050685458586  0.0000
  Si     Si        0.832191102561898    0.720656057301508    0.005857841907619  0.0000
  Si     Si        0.322707660348582    0.303720258318739    0.962243839355283  0.0000
  Si     Si        0.348712724226292    0.697460592569665    0.981004491844382  0.0000
  Si     Si        0.650935384706860    0.683474072289924    0.013179353270125  0.0000
  Si     Si        0.852391702189685    0.320873132198173    0.002237281058874  0.0000
  O2     O2        0.087674606512108    0.193592017450110    0.351462996355683  0.0000
  O3     O3        0.417431885588912    0.781519614102005    0.376362027551921  0.0000
  O2     O2        0.898303828914356    0.207403356284300    0.615268060073831  0.0000
  O2     O2        0.584542109362538    0.822934939592053    0.631352657694931  0.0000
  O2     O2        0.877525481426092    0.864646438385568    0.618909120912392  0.0000
  O2     O2        0.606488150897297    0.166875368103168    0.628352369453099  0.0000
  O2     O2        0.108223762890619    0.843614189816363    0.371309957768478  0.0000
  O2     O2        0.372160002170792    0.099572681463448    0.332508343620685  0.0000
  O2     O2        0.992836262580094    0.001723511117083    0.487940794424477  0.0000
  O2     O2        0.483572693641563    0.035741117415041    0.509058444902731  0.0000
  O2     O2        0.986560484667298    0.974336663942481    0.241391294277926  0.0000
  O3     O3        0.518974424963886    0.009073823028826    0.272846470317734  0.0000
  O2     O2        0.001979337101861    0.991803620196888    0.736210710403662  0.0000
  O2     O2        0.487184585155549    0.036631797715602    0.755112822211926  0.0000
  O3     O3        0.635345965626848    0.142058833932395    0.110972599834566  0.0000
  O2     O2        0.876905971789892    0.859835933066038    0.092775427836844  0.0000
  O2     O2        0.366145953346337    0.158883335992691    0.876422151772966  0.0000
  O3     O3        0.133727574581430    0.933860491658382    0.874698112718893  0.0000
  O2     O2        0.410121645208806    0.818251314003620    0.902226610988546  0.0000
  O3     O3        0.069947464006827    0.244622074543998    0.868568396556346  0.0000
  O3     O3        0.591265287654224    0.787015537695746    0.100215910561479  0.0000
  O2     O2        0.913767532158857    0.200032204422776    0.085013378640106  0.0000
  O3     O3        0.490770548467987    0.074967196408032    0.006717525944987  0.0000
  O2     O2        0.009351652188363    0.958608351511211    0.991366902769716  0.0000
  O2     O2        0.129829068640699    0.521433809047933    0.280050523063342  0.0000
  O3     O3        0.366199764761312    0.445719460072747    0.301163215030250  0.0000
  O2     O2        0.855839916774909    0.531221494711867    0.673731562640928  0.0000
  O2     O2        0.630366030375805    0.495566700687121    0.690131551273552  0.0000
  O2     O2        0.235535788525034    0.265830332902218    0.312603608260208  0.0000
  O3     O3        0.252427835133275    0.710881429942811    0.339973563509363  0.0000
  O2     O2        0.750862521156754    0.276638479975000    0.672999324214253  0.0000
  O2     O2        0.734605269137206    0.750395285495556    0.669275740769291  0.0000
  O3     O3        0.132179251789200    0.265152682163847    0.117149919071226  0.0000
  O3     O3        0.359594450562945    0.741359914472424    0.130960064438728  0.0000
  O2     O2        0.864066016588283    0.278313830548583    0.851770024352933  0.0000
  O2     O2        0.635544969972523    0.743875547629371    0.863922458458440  0.0000
  O2     O2        0.839524708017186    0.772485251206542    0.854850351287088  0.0000
  O2     O2        0.653253220995487    0.232282206927981    0.863864189248195  0.0000
  O3     O3        0.165052951602068    0.807914005105939    0.141759738221642  0.0000
  O2     O2        0.322528578000431    0.237222464288135    0.111524381047666  0.0000
  O2     O2        0.635495648026108    0.476111536750469    0.035037587476082  0.0000
  O2     O2        0.870343369649945    0.525284660260277    0.029933481380215  0.0000
  O2     O2        0.368328657950061    0.490742903996011    0.955404394772686  0.0000
  O1     O1        0.114370815236445    0.573391232900456    0.953349840299836  0.0000
  O2     O2        0.764051323823823    0.277798201551531    0.041103876911366  0.0000
  O2     O2        0.741688514841018    0.725008228374486    0.048394312387208  0.0000
  O3     O3        0.234129064438683    0.326841194983581    0.911354623630265  0.0000
  O3     O3        0.260695979920010    0.733982253919664    0.933793709080109  0.0000
