data_c01049.vasp
_audit_creation_method             Generated by GULP
_audit_author_name                 Salvador R. G. Balestra
_symmetry_space_group_name_H-M     'P 1             '
_symmetry_Int_Tables_number        1

loop_
_symmetry_equiv_pos_site_id
_symmetry_equiv_pos_as_xyz
_cell_length_a                       16.9664
_cell_length_b                        7.5785
_cell_length_c                       10.3871
_cell_angle_alpha                   88.7670
_cell_angle_beta                    90.1128
_cell_angle_gamma                   89.9153

loop_
_atom_site_label
_atom_site_type_symbol
_atom_site_fract_x
_atom_site_fract_y
_atom_site_fract_z
_atom_site_charge
  Ge     Ge        0.556730000000016    0.000000000000000    0.122129999999970  0.0000
  Ge     Ge        0.349211397330328    0.688690755278371    0.285811479580241  0.0000
  Ge     Ge        0.169269283485447    0.751785110439370    0.971729216544649  0.0000
  Ge     Ge        0.649458909505516    0.674512463499524    0.021463719634220  0.0000
  Si     Si        0.045990664009148    0.017208098896581    0.359210783311379  0.0000
  Si     Si        0.450963606466908    0.000281687099350    0.373356964664963  0.0000
  Si     Si        0.948007783519216    0.036179924757924    0.617648989903076  0.0000
  Si     Si        0.546624143276392    0.022939734627295    0.630551474571580  0.0000
  Si     Si        0.949401047705724    0.008849566547187    0.101023155722707  0.0000
  Si     Si        0.444298015088773    0.027254936387953    0.882934334215572  0.0000
  Si     Si        0.059091181066237    0.034254889008796    0.863727311583322  0.0000
  Si     Si        0.149023546334536    0.326148688066318    0.267124931907367  0.0000
  Si     Si        0.846747345526923    0.341602282966517    0.699851897631404  0.0000
  Si     Si        0.650139919427691    0.711908792971271    0.716555402671199  0.0000
  Si     Si        0.830545065723188    0.744548068468910    0.710358116775798  0.0000
  Si     Si        0.665788252338783    0.304185526708659    0.710064410184366  0.0000
  Si     Si        0.165453974820107    0.733583774929353    0.278810237843732  0.0000
  Si     Si        0.330110367536740    0.279128019990374    0.272126001446435  0.0000
  Si     Si        0.674340787819441    0.271305923995388    0.009369809323162  0.0000
  Si     Si        0.833972607189795    0.724134397731643    0.012475904818765  0.0000
  Si     Si        0.330090875437307    0.306037784818402    0.971724985011403  0.0000
  Si     Si        0.353522914186052    0.703471837834762    0.977936667645700  0.0000
  Si     Si        0.147306798307871    0.348444167757498    0.969274282368654  0.0000
  Si     Si        0.855926599714562    0.329504145173486    0.998701455580567  0.0000
  O2     O2        0.089663736642684    0.206245575865398    0.351028316655609  0.0000
  O3     O3        0.419958072495407    0.801202063492810    0.369976184929355  0.0000
  O2     O2        0.904752458133691    0.226643230720007    0.612218221501865  0.0000
  O2     O2        0.589406462727971    0.832078304124292    0.633057886578269  0.0000
  O2     O2        0.881793792403031    0.885246631235691    0.630518780416528  0.0000
  O2     O2        0.612655745537722    0.176609132880150    0.624295964978238  0.0000
  O2     O2        0.109665042298540    0.858954080445992    0.362460672718943  0.0000
  O2     O2        0.373498144249687    0.122051092647221    0.349726699220559  0.0000
  O2     O2        0.996006179573148    0.008204468122430    0.488643764147467  0.0000
  O2     O2        0.490535708117544    0.041597503183590    0.508424023125960  0.0000
  O2     O2        0.987147151254691    0.992706122350063    0.240769125152592  0.0000
  O3     O3        0.516844360078704    0.044383043102136    0.268071687579241  0.0000
  O2     O2        0.007940403156781    0.023014047094329    0.736415482510531  0.0000
  O2     O2        0.490641710427255    0.049829185027379    0.751419195183026  0.0000
  O3     O3        0.644786023659720    0.112666404153789    0.097161917053177  0.0000
  O2     O2        0.880285812610852    0.865272178914773    0.095872981989019  0.0000
  O2     O2        0.369830369862122    0.162054307508409    0.881168542645498  0.0000
  O3     O3        0.132052203090895    0.902220210354115    0.862041777334897  0.0000
  O2     O2        0.416742716077682    0.823401890447577    0.899847950018669  0.0000
  O2     O2        0.090877883396391    0.233306548048895    0.879579832150523  0.0000
  O1     O1        0.582326263892156    0.782492753098579    0.112768550747668  0.0000
  O2     O2        0.915607861232814    0.206172549005650    0.079216442791912  0.0000
  O3     O3        0.497298844474497    0.082927254796022    0.001430424999574  0.0000
  O2     O2        0.012283942781738    0.964084356454718    0.990810850305262  0.0000
  O2     O2        0.132467933324680    0.532803769899488    0.287243849783507  0.0000
  O3     O3        0.367445527404485    0.465792028205744    0.305432106208156  0.0000
  O2     O2        0.862615178130872    0.549444011072225    0.677715599328481  0.0000
  O2     O2        0.633769321577449    0.504408056062837    0.695134650941312  0.0000
  O2     O2        0.238030987181072    0.280079667298497    0.310889741328759  0.0000
  O3     O3        0.253952673367365    0.734336377407490    0.332531343440097  0.0000
  O2     O2        0.756456837100520    0.297092885705217    0.663712605212323  0.0000
  O2     O2        0.738879355898579    0.759454954204749    0.670344410085169  0.0000
  O2     O2        0.136540813505542    0.281401743595715    0.117291462256805  0.0000
  O3     O3        0.362886136818568    0.751700079593791    0.126811741000229  0.0000
  O2     O2        0.865386151598011    0.287452929398877    0.847911264924343  0.0000
  O3     O3        0.637618697527322    0.753746072153022    0.864794198929487  0.0000
  O2     O2        0.835907310841661    0.782020684098856    0.861866461253255  0.0000
  O2     O2        0.661828234409272    0.235744836981424    0.857463183082347  0.0000
  O3     O3        0.165741520120082    0.804833894599032    0.132092486513580  0.0000
  O2     O2        0.336690133690664    0.241873022384272    0.120228281482418  0.0000
  O3     O3        0.630206397552687    0.453032972125344    0.039990330635020  0.0000
  O2     O2        0.876471853226625    0.532555198919110    0.026919674937459  0.0000
  O2     O2        0.372942918323851    0.496089971485175    0.956796874315598  0.0000
  O3     O3        0.123921918226724    0.549913091939890    0.951910234124390  0.0000
  O2     O2        0.766592132827936    0.294927999862510    0.040344439620546  0.0000
  O3     O3        0.746159645517667    0.715331686396478    0.064266999562024  0.0000
  O2     O2        0.238921425469081    0.323993916876728    0.930648753989477  0.0000
  O3     O3        0.266779531034544    0.741033271108078    0.927810178694976  0.0000
