data_c01042.vasp
_audit_creation_method             Generated by GULP
_audit_author_name                 Salvador R. G. Balestra
_symmetry_space_group_name_H-M     'P 1             '
_symmetry_Int_Tables_number        1

loop_
_symmetry_equiv_pos_site_id
_symmetry_equiv_pos_as_xyz
_cell_length_a                       17.1908
_cell_length_b                        7.6260
_cell_length_c                       10.1555
_cell_angle_alpha                   89.1719
_cell_angle_beta                    89.6639
_cell_angle_gamma                   90.3246

loop_
_atom_site_label
_atom_site_type_symbol
_atom_site_fract_x
_atom_site_fract_y
_atom_site_fract_z
_atom_site_charge
  Ge     Ge        0.556730000000016    0.000000000000000    0.122129999999970  0.0000
  Ge     Ge        0.333699745222819    0.726626303976856    0.298588144161972  0.0000
  Ge     Ge        0.354313232622270    0.332547728808598    0.983472646059858  0.0000
  Ge     Ge        0.151256788562525    0.691698383083112    0.979653588057167  0.0000
  Si     Si        0.049054928537459    0.997079644975704    0.382491725928631  0.0000
  Si     Si        0.449019731705151    0.013010417779128    0.381010733076187  0.0000
  Si     Si        0.949318636976072    0.016739882698283    0.641476773081675  0.0000
  Si     Si        0.554283238045004    0.019559451391402    0.628874409545488  0.0000
  Si     Si        0.945781735028612    0.997333246026416    0.133871609841660  0.0000
  Si     Si        0.449987098946124    0.018352086254059    0.875514053057282  0.0000
  Si     Si        0.056096244251678    0.006547521642029    0.890006921974731  0.0000
  Si     Si        0.166385160633988    0.290429748597649    0.283556388017728  0.0000
  Si     Si        0.836527355036971    0.303678833962834    0.720493632353051  0.0000
  Si     Si        0.666402422161301    0.727856631010336    0.733513723926845  0.0000
  Si     Si        0.845722663275082    0.705763550686809    0.724655867038033  0.0000
  Si     Si        0.656877962742855    0.322083312387014    0.729640955663308  0.0000
  Si     Si        0.148820157698672    0.691909888074714    0.288660912918304  0.0000
  Si     Si        0.345557984791911    0.320462790748432    0.300515836558569  0.0000
  Si     Si        0.657609570683084    0.316431764228978    0.034996600542797  0.0000
  Si     Si        0.850423845829823    0.687473332638565    0.031861083215448  0.0000
  Si     Si        0.335606542328008    0.740093858504871    0.986810326040982  0.0000
  Si     Si        0.173487686816103    0.288880097586420    0.971489666786990  0.0000
  Si     Si        0.671106701541065    0.715966032991584    0.039614068986606  0.0000
  Si     Si        0.837716398892243    0.290008430092281    0.027961195283404  0.0000
  O2     O2        0.112382008457707    0.150658935925553    0.359312503240027  0.0000
  O3     O3        0.386287596101333    0.859062309948336    0.401700857490114  0.0000
  O2     O2        0.887051155151967    0.174724960562230    0.630511516400869  0.0000
  O2     O2        0.613685389653187    0.858619586168909    0.647994926703882  0.0000
  O2     O2        0.902919726881761    0.831922030103636    0.640881585256889  0.0000
  O2     O2        0.599431710366674    0.204410793567380    0.643322445896815  0.0000
  O2     O2        0.091000209085927    0.808396916583700    0.377846994041957  0.0000
  O2     O2        0.402324811280785    0.196065822436183    0.385482432126827  0.0000
  O2     O2        0.010969897300293    0.022739988796863    0.524321565906888  0.0000
  O2     O2        0.520089679351587    0.012500466145703    0.482582269723514  0.0000
  O2     O2        0.979116461632536    0.010962113324487    0.279333233835587  0.0000
  O3     O3        0.486205697540147    0.982492407660608    0.238299978583189  0.0000
  O2     O2        0.996933996821102    0.045258131051908    0.774104048453246  0.0000
  O2     O2        0.480549512121364    0.004364137830583    0.726095627681107  0.0000
  O3     O3        0.601724023635813    0.203234556127466    0.126849242364188  0.0000
  O2     O2        0.907442097448188    0.805589250749971    0.117381496816147  0.0000
  O3     O3        0.425327935719937    0.217043720947157    0.904235114841071  0.0000
  O3     O3        0.092027018681573    0.814719099867857    0.878885024608857  0.0000
  O2     O2        0.375853654215077    0.890425992833724    0.896502934648454  0.0000
  O2     O2        0.125700571236909    0.148496290564787    0.888279076694528  0.0000
  O3     O3        0.627749457365318    0.840984262481941    0.137812477328550  0.0000
  O2     O2        0.881552926273339    0.147812825647294    0.116000413913087  0.0000
  O3     O3        0.517664014999170    0.957320875960635    0.970900586784766  0.0000
  O2     O2        0.014534191550087    0.027902766768122    0.030409209382516  0.0000
  O2     O2        0.147125182260591    0.486389958982289    0.333236421473647  0.0000
  O3     O3        0.350244890664817    0.514725579874038    0.353641753093267  0.0000
  O2     O2        0.863296046067004    0.503754223113654    0.690975937608249  0.0000
  O2     O2        0.638880000601276    0.528031530947108    0.707435600682446  0.0000
  O2     O2        0.256662223799041    0.247571406175858    0.312011054026253  0.0000
  O3     O3        0.235371130323303    0.766896208528390    0.304359080769636  0.0000
  O2     O2        0.745481729588785    0.282485440070512    0.686841888930237  0.0000
  O2     O2        0.756453412570165    0.750603733555164    0.690049768182307  0.0000
  O2     O2        0.153055584204774    0.282193253933343    0.127401148627186  0.0000
  O3     O3        0.364136281073152    0.752653207589295    0.137156684432717  0.0000
  O2     O2        0.848919505021975    0.251873839416147    0.873442248777510  0.0000
  O2     O2        0.658987123920267    0.774713288864256    0.887084598404574  0.0000
  O2     O2        0.862135924072092    0.738221603348520    0.878408651526075  0.0000
  O2     O2        0.642619052258352    0.268326869907508    0.882107511191022  0.0000
  O3     O3        0.118876186860121    0.707880310566894    0.140121660583828  0.0000
  O3     O3        0.372961124611772    0.315434573132141    0.149317169088400  0.0000
  O2     O2        0.638206456430896    0.519099355120476    0.058726895814657  0.0000
  O2     O2        0.871545022364121    0.483861263293453    0.057374967610707  0.0000
  O3     O3        0.356788968199838    0.548925580862169    0.933266747438473  0.0000
  O3     O3        0.151820823282289    0.482187879574064    0.920752190849927  0.0000
  O2     O2        0.747428473568255    0.278011546165071    0.067596391947899  0.0000
  O2     O2        0.762141652969365    0.722002139078117    0.074172660906677  0.0000
  O3     O3        0.263389478868129    0.249135525496750    0.950216116011702  0.0000
  O3     O3        0.244461574149810    0.773354692858954    0.981040075388638  0.0000
