data_c01023.vasp
_audit_creation_method             Generated by GULP
_audit_author_name                 Salvador R. G. Balestra
_symmetry_space_group_name_H-M     'P 1             '
_symmetry_Int_Tables_number        1

loop_
_symmetry_equiv_pos_site_id
_symmetry_equiv_pos_as_xyz
_cell_length_a                       17.1084
_cell_length_b                        7.6187
_cell_length_c                       10.2862
_cell_angle_alpha                   88.9737
_cell_angle_beta                    89.6442
_cell_angle_gamma                   89.2859

loop_
_atom_site_label
_atom_site_type_symbol
_atom_site_fract_x
_atom_site_fract_y
_atom_site_fract_z
_atom_site_charge
  Ge     Ge        0.556730000000016    0.000000000000000    0.122129999999970  0.0000
  Ge     Ge        0.333281285776388    0.700891237543897    0.289951451151671  0.0000
  Ge     Ge        0.654120918048030    0.317607763716262    0.719215756717947  0.0000
  Ge     Ge        0.677156604329907    0.718063760153023    0.032778016512098  0.0000
  Si     Si        0.045006396867760    0.980411460029440    0.359970731424129  0.0000
  Si     Si        0.446935562141830    0.984855567872747    0.377058172152397  0.0000
  Si     Si        0.954416583461696    0.989346695728125    0.628690204170557  0.0000
  Si     Si        0.551115724593731    0.015524608956287    0.624491539306596  0.0000
  Si     Si        0.946222176457120    0.977368344596491    0.106097519159988  0.0000
  Si     Si        0.449790305727628    0.987729641918561    0.876163871657924  0.0000
  Si     Si        0.063529013605279    0.993562016393444    0.873085149636014  0.0000
  Si     Si        0.161802079901172    0.268709868703545    0.274091652923606  0.0000
  Si     Si        0.836094474215274    0.282058840189556    0.709577808633028  0.0000
  Si     Si        0.671210289017012    0.733132248763401    0.726937879195814  0.0000
  Si     Si        0.849061960648717    0.681830879470506    0.718224853211608  0.0000
  Si     Si        0.149719958062469    0.672702500670345    0.276883849650637  0.0000
  Si     Si        0.342583048635220    0.290215044402978    0.289737078705756  0.0000
  Si     Si        0.651529714593142    0.314953642071900    0.023938467427496  0.0000
  Si     Si        0.856985030759780    0.657160882710768    0.024393489604652  0.0000
  Si     Si        0.352089530795328    0.299475994747155    0.986362163598108  0.0000
  Si     Si        0.158607738382103    0.676322158073050    0.972490690197206  0.0000
  Si     Si        0.339233408922810    0.702902335232680    0.980453135999390  0.0000
  Si     Si        0.171771164046829    0.277073219644999    0.970936429360305  0.0000
  Si     Si        0.832514869693699    0.267202327589885    0.015587699617031  0.0000
  O2     O2        0.110141751626791    0.131527955184842    0.355067976369504  0.0000
  O3     O3        0.387238147812268    0.825960128494626    0.392407007557934  0.0000
  O2     O2        0.892265170523161    0.149009674578509    0.633543711213400  0.0000
  O2     O2        0.621149826644711    0.873978815057522    0.643099291887221  0.0000
  O2     O2        0.910180291009771    0.805096952719764    0.643275716058702  0.0000
  O3     O3        0.587493882575177    0.207356874741914    0.627234025900074  0.0000
  O2     O2        0.086173821791577    0.789313824381765    0.352983583521695  0.0000
  O2     O2        0.396106561570631    0.165032025334220    0.379799806736081  0.0000
  O2     O2        0.997299024615505    0.995477375744574    0.491691465204997  0.0000
  O2     O2        0.513589991786782    0.985431950435866    0.484564908502257  0.0000
  O2     O2        0.984462140543209    0.009047518154419    0.243744949455071  0.0000
  O3     O3        0.488131958153013    0.964683231139966    0.238488826962534  0.0000
  O2     O2        0.019975552811410    0.009460232665465    0.737456415640259  0.0000
  O2     O2        0.482019717255279    0.992063970376674    0.729837256042943  0.0000
  O3     O3        0.594357806224576    0.209077691487194    0.119355681971792  0.0000
  O2     O2        0.921498470813380    0.773901928384036    0.095286407686742  0.0000
  O2     O2        0.413101336008055    0.179808732668113    0.908267528743927  0.0000
  O2     O2        0.103288161555549    0.800824305866615    0.884928920434590  0.0000
  O2     O2        0.384779749883845    0.836167958561312    0.885773944634463  0.0000
  O2     O2        0.129387903005290    0.142908125013462    0.877408789241836  0.0000
  O1     O1        0.633476521432825    0.855300907756677    0.138639578862780  0.0000
  O2     O2        0.870792695995691    0.105539503034990    0.094964646239881  0.0000
  O3     O3        0.518291188988587    0.941002877932069    0.973876269029815  0.0000
  O2     O2        0.004488705575391    0.030728586462927    0.990513180199367  0.0000
  O2     O2        0.132943167190861    0.466781703054086    0.302490710484231  0.0000
  O3     O3        0.362204528872584    0.487085656216922    0.320545792728858  0.0000
  O2     O2        0.868029944840335    0.479357139956123    0.685944292648303  0.0000
  O3     O3        0.636036595924924    0.540818134242426    0.712461292236739  0.0000
  O2     O2        0.251696826358501    0.247782830682073    0.317830676960408  0.0000
  O3     O3        0.235101767129921    0.720680814852602    0.324806917685882  0.0000
  O3     O3        0.747598842978523    0.273196967287558    0.662215233777047  0.0000
  O2     O2        0.760935471560937    0.729390106263355    0.673538639577776  0.0000
  O2     O2        0.155696190082415    0.227017139578593    0.121466198976276  0.0000
  O3     O3        0.349173822605351    0.757835247910944    0.128745783013310  0.0000
  O2     O2        0.835529880671790    0.230207068060992    0.862370257319570  0.0000
  O3     O3        0.672864613505893    0.795814026626186    0.874051425451938  0.0000
  O2     O2        0.856324543098353    0.711002966555365    0.872024247861972  0.0000
  O3     O3        0.640671742491252    0.246372391710345    0.878008030969526  0.0000
  O2     O2        0.142869905410868    0.717250258938660    0.123296721006946  0.0000
  O2     O2        0.361807816342123    0.251493017685030    0.138437564190654  0.0000
  O3     O3        0.630873577749084    0.517578693468319    0.035164327746391  0.0000
  O2     O2        0.877284110288760    0.449496949322616    0.043621271035669  0.0000
  O2     O2        0.372021383694529    0.504049310977400    0.962198552163814  0.0000
  O2     O2        0.140100938137889    0.474351275388537    0.941495059586873  0.0000
  O2     O2        0.742936831611469    0.284321694616534    0.061529934418338  0.0000
  O3     O3        0.772653449073028    0.694864259502061    0.083178942479695  0.0000
  O2     O2        0.264052685292802    0.263076671306859    0.941112747401849  0.0000
  O2     O2        0.248711905034229    0.713532135925278    0.940057979554080  0.0000
