data_c01011.vasp
_audit_creation_method             Generated by GULP
_audit_author_name                 Salvador R. G. Balestra
_symmetry_space_group_name_H-M     'P 1             '
_symmetry_Int_Tables_number        1

loop_
_symmetry_equiv_pos_site_id
_symmetry_equiv_pos_as_xyz
_cell_length_a                       17.1365
_cell_length_b                        7.6279
_cell_length_c                       10.2722
_cell_angle_alpha                   89.5638
_cell_angle_beta                    90.8021
_cell_angle_gamma                   89.5099

loop_
_atom_site_label
_atom_site_type_symbol
_atom_site_fract_x
_atom_site_fract_y
_atom_site_fract_z
_atom_site_charge
  Ge     Ge        0.556730000000016    0.000000000000000    0.122129999999970  0.0000
  Ge     Ge        0.350185916287144    0.676705850799236    0.287937198542581  0.0000
  Ge     Ge        0.840511940348503    0.709764356867449    0.710297964973807  0.0000
  Ge     Ge        0.331644570320853    0.285664388141242    0.963606245561472  0.0000
  Si     Si        0.052923010339518    0.003010283098662    0.372285702034031  0.0000
  Si     Si        0.454690568365489    0.980330171598287    0.379799876969417  0.0000
  Si     Si        0.957966466756218    0.998147273377398    0.631867484864939  0.0000
  Si     Si        0.553531151763136    0.989072085241092    0.636398168806697  0.0000
  Si     Si        0.943996075649433    0.002000351273544    0.127584704364530  0.0000
  Si     Si        0.443435511318658    0.001911590282112    0.879814264313012  0.0000
  Si     Si        0.057324941883367    0.010448850916678    0.892180216879295  0.0000
  Si     Si        0.157726511391329    0.307179085203828    0.274650714886574  0.0000
  Si     Si        0.850187754222223    0.299068007656442    0.719367513492568  0.0000
  Si     Si        0.658378497436457    0.680528543676165    0.706390889517445  0.0000
  Si     Si        0.668619007717718    0.276309937378704    0.719135968247858  0.0000
  Si     Si        0.167593038050822    0.707925154609017    0.287537760155765  0.0000
  Si     Si        0.335872756441643    0.263281441960197    0.271908315672027  0.0000
  Si     Si        0.670914516651951    0.285247945298895    0.021046419509107  0.0000
  Si     Si        0.835273952147351    0.718391661933803    0.020120387159773  0.0000
  Si     Si        0.170360321382156    0.721840110893349    0.982103666642379  0.0000
  Si     Si        0.351879822531553    0.688414176885519    0.981485627076215  0.0000
  Si     Si        0.150550856632482    0.329728107983199    0.968512623291037  0.0000
  Si     Si        0.656207089960762    0.684775824112648    0.011667937947000  0.0000
  Si     Si        0.851472015189177    0.316586189447679    0.021425482281962  0.0000
  O2     O2        0.098794178857576    0.183019844534599    0.349997962790616  0.0000
  O3     O3        0.416927087158132    0.789009432640633    0.380537590886924  0.0000
  O2     O2        0.904477803096284    0.172493589120300    0.635929304233869  0.0000
  O2     O2        0.596085244165246    0.799569199584204    0.625236466679354  0.0000
  O3     O3        0.900540842811305    0.835877292877387    0.617007026824570  0.0000
  O2     O2        0.618396651204695    0.141749941811984    0.633666902756208  0.0000
  O2     O2        0.111592801630268    0.837525395140069    0.365761187542709  0.0000
  O2     O2        0.384733385639604    0.119653008708585    0.354050726745788  0.0000
  O2     O2        0.017443686225611    0.010062701203741    0.514527948876702  0.0000
  O2     O2        0.492746775772634    0.018712804332231    0.519881158399555  0.0000
  O2     O2        0.982480456821722    0.983774275907650    0.269314451266460  0.0000
  O3     O3        0.523285733442327    0.998494909094586    0.277603424867930  0.0000
  O2     O2        0.008476344642473    0.973673009256501    0.763308227904428  0.0000
  O2     O2        0.506895782750078    0.998964514633187    0.769278288003066  0.0000
  O3     O3        0.629803182491830    0.153729770738720    0.116393521037155  0.0000
  O2     O2        0.878461801248370    0.853131364691826    0.115397716608913  0.0000
  O3     O3        0.376727484867840    0.146889891823311    0.856580603144994  0.0000
  O2     O2        0.130890778049978    0.876756567420458    0.897602675195758  0.0000
  O2     O2        0.404830156246203    0.809989492006124    0.890587150591883  0.0000
  O2     O2        0.087154369807022    0.211338309068987    0.892897118616550  0.0000
  O3     O3        0.593418062189334    0.794252424682655    0.088072228821330  0.0000
  O2     O2        0.907137854988620    0.197074030091149    0.113208412349337  0.0000
  O3     O3        0.484018230604652    0.059631503698895    0.014739882379676  0.0000
  O2     O2        0.007523543163439    0.966664379469023    0.018408062790349  0.0000
  O2     O2        0.137519915832520    0.508967668479929    0.306849917831276  0.0000
  O3     O3        0.370336010770796    0.455122386940223    0.294224840500174  0.0000
  O3     O3        0.870349405310048    0.496450692285981    0.687380809373425  0.0000
  O2     O2        0.640223732894471    0.474601144263856    0.686451909938485  0.0000
  O2     O2        0.246156521122997    0.263510308657782    0.320418477332604  0.0000
  O3     O3        0.256088924050836    0.719111269443287    0.337691821796420  0.0000
  O2     O2        0.759746455747885    0.257211024552642    0.685030685582855  0.0000
  O3     O3        0.744285973930251    0.724282631113795    0.659135970357656  0.0000
  O2     O2        0.150144190165800    0.274911972575878    0.120533121123028  0.0000
  O3     O3        0.364700109218073    0.746976227109398    0.129592544456069  0.0000
  O2     O2        0.866407449169287    0.261869135384038    0.872673731665007  0.0000
  O2     O2        0.651256863639964    0.729349204089884    0.858228549662880  0.0000
  O3     O3        0.846372849239005    0.773275662182187    0.871035010185010  0.0000
  O2     O2        0.656995745596770    0.228605636106135    0.870908354420097  0.0000
  O2     O2        0.165972687684302    0.762157582483418    0.135346165905155  0.0000
  O3     O3        0.337022974848873    0.209429188000025    0.121956729098160  0.0000
  O2     O2        0.637192659707388    0.481333582413753    0.038101975344720  0.0000
  O2     O2        0.870225734351414    0.521546993887934    0.041555644954046  0.0000
  O3     O3        0.375412202637993    0.488691716795163    0.959903732103701  0.0000
  O2     O2        0.128582889244091    0.536092348770339    0.951444883118804  0.0000
  O2     O2        0.762385649394043    0.281083138527191    0.056619310247859  0.0000
  O2     O2        0.744457483260210    0.725516214944120    0.058623124981448  0.0000
  O3     O3        0.235538902853471    0.297355322255405    0.912842778629842  0.0000
  O2     O2        0.260420020868797    0.709773179125123    0.942426265224043  0.0000
