data_c01090.vasp
_audit_creation_method             Generated by GULP
_audit_author_name                 Salvador R. G. Balestra
_symmetry_space_group_name_H-M     'P 1             '
_symmetry_Int_Tables_number        1

loop_
_symmetry_equiv_pos_site_id
_symmetry_equiv_pos_as_xyz
_cell_length_a                       16.9301
_cell_length_b                        7.6023
_cell_length_c                       10.3613
_cell_angle_alpha                   88.3712
_cell_angle_beta                    89.7917
_cell_angle_gamma                   91.0089

loop_
_atom_site_label
_atom_site_type_symbol
_atom_site_fract_x
_atom_site_fract_y
_atom_site_fract_z
_atom_site_charge
  Ge     Ge        0.556730000000016    0.000000000000000    0.122129999999970  0.0000
  Ge     Ge        0.852287559498300    0.358966991537828    0.705727412575322  0.0000
  Ge     Ge        0.829344796631531    0.733244404857386    0.033929693244302  0.0000
  Ge     Ge        0.642489667215272    0.667319350999853    0.029158408253159  0.0000
  Si     Si        0.051747020033183    0.029765371318049    0.370326909994866  0.0000
  Si     Si        0.453426567744437    0.031260125530402    0.371701089718417  0.0000
  Si     Si        0.953603462896769    0.052910062762338    0.626415739480964  0.0000
  Si     Si        0.548114096719976    0.030254646679390    0.631829316423943  0.0000
  Si     Si        0.940674615628696    0.024791324974680    0.124084636454337  0.0000
  Si     Si        0.443393266395032    0.046448741948214    0.882587099854138  0.0000
  Si     Si        0.052024022871430    0.034940850128849    0.884050673095835  0.0000
  Si     Si        0.156259860382414    0.340381410499287    0.285186678970909  0.0000
  Si     Si        0.348169476308668    0.725412788423542    0.273258749798156  0.0000
  Si     Si        0.650544144879999    0.718754885644412    0.721857858864697  0.0000
  Si     Si        0.831256759752808    0.770067962106910    0.727561814979065  0.0000
  Si     Si        0.667075291887952    0.316541543632136    0.700598814123956  0.0000
  Si     Si        0.165810000877429    0.744594562826562    0.279638607917262  0.0000
  Si     Si        0.337945544831606    0.320116121837031    0.275504025780957  0.0000
  Si     Si        0.670825308265036    0.276916100208347    0.000629798511714  0.0000
  Si     Si        0.332168749020791    0.325723605817972    0.974234147497917  0.0000
  Si     Si        0.163800829039506    0.748408025862124    0.978460366383542  0.0000
  Si     Si        0.346488357554667    0.726002663545874    0.973106922556173  0.0000
  Si     Si        0.149805444317151    0.348301181593164    0.984071343554317  0.0000
  Si     Si        0.854855981593170    0.340941856657798    0.006525523795234  0.0000
  O2     O2        0.099363611825268    0.215778598275054    0.373241651986218  0.0000
  O2     O2        0.408938546768320    0.844274111247411    0.351358278888948  0.0000
  O3     O3        0.918895479298021    0.246972975089597    0.613365718216665  0.0000
  O2     O2        0.591319764938486    0.843199220447320    0.640813986374603  0.0000
  O2     O2        0.878773964669484    0.920622360106368    0.646083575310168  0.0000
  O2     O2        0.612957035097492    0.188401355431498    0.614901962184050  0.0000
  O2     O2        0.114226211709596    0.872286135743503    0.364625390716355  0.0000
  O2     O2        0.391247176142762    0.188762189309078    0.358657916617217  0.0000
  O2     O2        0.000422296534190    0.003497184691631    0.498519535085858  0.0000
  O2     O2        0.488993473567027    0.030415745753452    0.513150465745870  0.0000
  O2     O2        0.994867469422798    0.027068418162121    0.248536312874485  0.0000
  O3     O3        0.524567886055578    0.057449530806213    0.271760139716953  0.0000
  O2     O2        0.014074694610826    0.032508058826848    0.744413198916445  0.0000
  O2     O2        0.495525072562250    0.067353677224333    0.755915215839242  0.0000
  O3     O3        0.646590337181621    0.107509378631550    0.084744289444807  0.0000
  O3     O3        0.875588368423188    0.872881358969325    0.139002349428973  0.0000
  O2     O2        0.375058398885628    0.192775226880991    0.881394490606425  0.0000
  O2     O2        0.119624719456636    0.888468196035916    0.888403148284945  0.0000
  O2     O2        0.404225914031054    0.850029665039294    0.886687617479342  0.0000
  O2     O2        0.089252113492453    0.228964899816219    0.905323664987055  0.0000
  O1     O1        0.573599287927812    0.780719999526119    0.113868887841907  0.0000
  O2     O2        0.898964246872277    0.212943068671867    0.107660576751575  0.0000
  O3     O3        0.493908160693898    0.084034812464300    0.007400525009096  0.0000
  O2     O2        0.989407056271263    0.981103774677004    0.994913813534113  0.0000
  O2     O2        0.139583578910675    0.543502573581722    0.313778377008509  0.0000
  O2     O2        0.365170284137510    0.520378809647269    0.302147203546181  0.0000
  O3     O3        0.869867503974038    0.582602032340984    0.703357449766519  0.0000
  O2     O2        0.632809484725767    0.514016975252981    0.691831598242648  0.0000
  O2     O2        0.246718488145468    0.294752545346428    0.317450862249072  0.0000
  O2     O2        0.258464535406026    0.770621926155749    0.311190118593779  0.0000
  O3     O3        0.757017329113114    0.318662384663968    0.653334121664198  0.0000
  O2     O2        0.740506576844474    0.764986115678886    0.678493518189153  0.0000
  O2     O2        0.138530019067845    0.302882307573606    0.135703674859441  0.0000
  O2     O2        0.363863540053710    0.769891889955729    0.122069011799423  0.0000
  O3     O3        0.870215465104175    0.281186974281637    0.861825750047434  0.0000
  O3     O3        0.638398773220227    0.750963622600843    0.871611360104545  0.0000
  O3     O3        0.829577591850963    0.816673434561329    0.876825049346327  0.0000
  O2     O2        0.664604160124051    0.240819996888780    0.847942130497602  0.0000
  O2     O2        0.151928370394174    0.790840123052484    0.128806565907499  0.0000
  O2     O2        0.346744917560884    0.276875494763552    0.124805375165945  0.0000
  O3     O3        0.618915809160129    0.445332194331596    0.035034085685928  0.0000
  O3     O3        0.881421796603630    0.538732332739027    0.031194131349158  0.0000
  O2     O2        0.365087615703553    0.523810457166083    0.945036213714286  0.0000
  O2     O2        0.130438749496201    0.552107692070957    0.953008573447114  0.0000
  O2     O2        0.760188320323264    0.340519119728953    0.029723478918585  0.0000
  O1     O1        0.734781002025792    0.710347105215075    0.088619634473557  0.0000
  O2     O2        0.239417384018510    0.311571656290366    0.943071487958370  0.0000
  O2     O2        0.255727195962069    0.763560099320800    0.941147728708759  0.0000
