data_c01005.vasp
_audit_creation_method             Generated by GULP
_audit_author_name                 Salvador R. G. Balestra
_symmetry_space_group_name_H-M     'P 1             '
_symmetry_Int_Tables_number        1

loop_
_symmetry_equiv_pos_site_id
_symmetry_equiv_pos_as_xyz
_cell_length_a                       17.1946
_cell_length_b                        7.6456
_cell_length_c                       10.2219
_cell_angle_alpha                   90.0291
_cell_angle_beta                    89.3878
_cell_angle_gamma                   90.3597

loop_
_atom_site_label
_atom_site_type_symbol
_atom_site_fract_x
_atom_site_fract_y
_atom_site_fract_z
_atom_site_charge
  Ge     Ge        0.556730000000016    0.000000000000000    0.122129999999970  0.0000
  Ge     Ge        0.331056330770696    0.718350597606119    0.300836798944311  0.0000
  Ge     Ge        0.660580285587453    0.705344845391354    0.729905646229509  0.0000
  Ge     Ge        0.170139852901379    0.281229527396802    0.975522206437191  0.0000
  Si     Si        0.046684448409283    0.986249850452135    0.378338892005672  0.0000
  Si     Si        0.446345497648353    0.008089717215201    0.378744026645086  0.0000
  Si     Si        0.948725422984908    0.986293022173923    0.640215858051246  0.0000
  Si     Si        0.546501041875696    0.998891711237117    0.632116143475324  0.0000
  Si     Si        0.947823218690838    0.003958553884093    0.124408012759788  0.0000
  Si     Si        0.444412050751558    0.007579063690947    0.882004264725059  0.0000
  Si     Si        0.059686801966508    0.993950826899909    0.885802486724646  0.0000
  Si     Si        0.162982716625255    0.275849356990496    0.286779320098546  0.0000
  Si     Si        0.837026752824554    0.281488609367199    0.726893620445401  0.0000
  Si     Si        0.842243959400618    0.682281797700175    0.715282849035473  0.0000
  Si     Si        0.656692792478897    0.291757589142123    0.737599504169695  0.0000
  Si     Si        0.148967120546965    0.680185627639598    0.290696733882309  0.0000
  Si     Si        0.341526200001009    0.311687280930055    0.295716182031159  0.0000
  Si     Si        0.658752040281170    0.312723641052628    0.039327409234693  0.0000
  Si     Si        0.849423362703114    0.689830266600563    0.023430297454168  0.0000
  Si     Si        0.350982358025159    0.322680033681502    0.987559151098252  0.0000
  Si     Si        0.153829205790124    0.682642864240472    0.985216322216161  0.0000
  Si     Si        0.334239154835601    0.720714972304313    0.989320466007540  0.0000
  Si     Si        0.671616797071940    0.716246524279657    0.038183162144305  0.0000
  Si     Si        0.838582102414459    0.293228091928933    0.032117101323477  0.0000
  O2     O2        0.111215284921504    0.139683351237115    0.369928403313713  0.0000
  O3     O3        0.384628268842303    0.852780707866281    0.400070757734422  0.0000
  O2     O2        0.887886999470296    0.146125114389323    0.643151519602853  0.0000
  O3     O3        0.595560065237198    0.822766113678570    0.639736896240192  0.0000
  O2     O2        0.901894541718654    0.803376698900111    0.633170368407910  0.0000
  O2     O2        0.604314052260579    0.161703277715044    0.653764141104155  0.0000
  O2     O2        0.086432420103163    0.795748930664388    0.369854467058491  0.0000
  O2     O2        0.398869747862271    0.189116908498759    0.376212517878631  0.0000
  O2     O2        0.004398026191145    0.005411235820038    0.516436498452491  0.0000
  O2     O2        0.511805342550008    0.016949865085933    0.488089868753817  0.0000
  O2     O2        0.981941098344138    0.005739661293457    0.268304695098428  0.0000
  O3     O3        0.488205074771676    0.973622981145141    0.240930463603071  0.0000
  O2     O2        0.001431043095884    0.990649659944751    0.767376043235473  0.0000
  O2     O2        0.473936763068390    0.001963362855176    0.732723896540789  0.0000
  O3     O3        0.601883998320782    0.202907733583552    0.131598274405547  0.0000
  O2     O2        0.910243276811961    0.814544642272417    0.095685624821506  0.0000
  O2     O2        0.415464295765726    0.203908687581764    0.915972941096977  0.0000
  O2     O2        0.099932853367629    0.805318184993121    0.898341263397828  0.0000
  O2     O2        0.375541831025664    0.864242864828836    0.897269142497340  0.0000
  O3     O3        0.125587639497361    0.139924215148310    0.869263442958526  0.0000
  O3     O3        0.626696220016185    0.839543398366944    0.137047388316350  0.0000
  O2     O2        0.884080917236997    0.156631577790377    0.120529305876182  0.0000
  O3     O3        0.514372600940039    0.957168653577512    0.973870163121053  0.0000
  O2     O2        0.015072225961414    0.047504133025113    0.019560654140688  0.0000
  O2     O2        0.131070662398566    0.473106149724251    0.306684543538882  0.0000
  O3     O3        0.363693062754608    0.508761294531715    0.326325483721999  0.0000
  O2     O2        0.863080994969002    0.478824508455911    0.690668977419183  0.0000
  O3     O3        0.632810091113727    0.489123094036657    0.713723499854038  0.0000
  O2     O2        0.252071623313087    0.269450346209301    0.336183303880230  0.0000
  O3     O3        0.233858077167605    0.724978651611185    0.342808161963378  0.0000
  O2     O2        0.746172307792222    0.258307758029182    0.694395042362747  0.0000
  O3     O3        0.755332351423674    0.721849120131548    0.672063461855964  0.0000
  O3     O3        0.161151734416353    0.218446413305706    0.136703366346266  0.0000
  O3     O3        0.342002164672764    0.778805636882893    0.138808361759663  0.0000
  O2     O2        0.849281335567546    0.242518408309489    0.880142040742898  0.0000
  O3     O3        0.659562304477616    0.777421187126066    0.889360268413933  0.0000
  O2     O2        0.851680508331795    0.726323007580891    0.868785705516717  0.0000
  O2     O2        0.645117096706477    0.245105161377291    0.891078172081473  0.0000
  O2     O2        0.143574925297138    0.731238621379835    0.137978827788368  0.0000
  O2     O2        0.351280458454197    0.274793361722573    0.140918724358155  0.0000
  O2     O2        0.639672543048984    0.517363230678924    0.049962653395602  0.0000
  O2     O2        0.871905181529571    0.489133941653352    0.054442076044058  0.0000
  O2     O2        0.372553869304766    0.528449362251617    0.969563906229747  0.0000
  O3     O3        0.129877310819857    0.485681504658358    0.957574674086904  0.0000
  O2     O2        0.748645795004741    0.281975966877118    0.075465392622295  0.0000
  O2     O2        0.762558920639285    0.725484643530498    0.075374687599475  0.0000
  O3     O3        0.267015720431706    0.284700787235678    0.930116865796787  0.0000
  O2     O2        0.244398777084713    0.710479205486745    0.947552907009207  0.0000
