data_c01064.vasp
_audit_creation_method             Generated by GULP
_audit_author_name                 Salvador R. G. Balestra
_symmetry_space_group_name_H-M     'P 1             '
_symmetry_Int_Tables_number        1

loop_
_symmetry_equiv_pos_site_id
_symmetry_equiv_pos_as_xyz
_cell_length_a                       17.0920
_cell_length_b                        7.6406
_cell_length_c                       10.2552
_cell_angle_alpha                   89.9682
_cell_angle_beta                    90.4476
_cell_angle_gamma                   90.0445

loop_
_atom_site_label
_atom_site_type_symbol
_atom_site_fract_x
_atom_site_fract_y
_atom_site_fract_z
_atom_site_charge
  Ge     Ge        0.556730000000016    0.000000000000000    0.122129999999970  0.0000
  Ge     Ge        0.826354445071210    0.264963833426806    0.692962292724948  0.0000
  Ge     Ge        0.656828538933761    0.717588743722920    0.702840287826082  0.0000
  Ge     Ge        0.161976740649063    0.275629412813704    0.949311569189097  0.0000
  Si     Si        0.046226734331779    0.982812965495965    0.352808391512609  0.0000
  Si     Si        0.442230510177205    0.000661429845307    0.363142492382108  0.0000
  Si     Si        0.943771983387650    0.977083239012239    0.606246074736826  0.0000
  Si     Si        0.536609763092561    0.001660503516949    0.623013765260801  0.0000
  Si     Si        0.942134432877904    0.989392574902211    0.100631676226504  0.0000
  Si     Si        0.439843958086005    0.992443401331837    0.880961839298230  0.0000
  Si     Si        0.049467180466948    0.990692699711233    0.859565679113621  0.0000
  Si     Si        0.159320689015989    0.274809107412725    0.259394016036389  0.0000
  Si     Si        0.329189378733711    0.706184574010207    0.261878812552904  0.0000
  Si     Si        0.840968375469934    0.672636056801811    0.687858488892856  0.0000
  Si     Si        0.642114053963372    0.305565176336819    0.704609467999023  0.0000
  Si     Si        0.149440518026415    0.680452063863751    0.258320013624398  0.0000
  Si     Si        0.338006669497111    0.305870395585500    0.261495365263444  0.0000
  Si     Si        0.650538022041205    0.315862686523852    0.007610609389542  0.0000
  Si     Si        0.848135124774630    0.673147656738337    0.994330415174712  0.0000
  Si     Si        0.344107916615828    0.312956335091813    0.953936025936403  0.0000
  Si     Si        0.144829722011681    0.677597600489344    0.955323103989925  0.0000
  Si     Si        0.326544380690422    0.706765974139324    0.956928849395718  0.0000
  Si     Si        0.668682742958258    0.718203197448653    0.009487338832141  0.0000
  Si     Si        0.830666028060566    0.274434780988565    0.003376876590816  0.0000
  O2     O2        0.105801073098030    0.146138236626984    0.344624094887646  0.0000
  O2     O2        0.382136183698289    0.840224061897799    0.343014442997782  0.0000
  O3     O3        0.878180534291300    0.125289396837132    0.595656804535158  0.0000
  O3     O3        0.601694788420799    0.853379081834847    0.605448514389121  0.0000
  O2     O2        0.900294791141635    0.790035998514462    0.603892250386867  0.0000
  O2     O2        0.579168614859050    0.189995252736059    0.625399229748716  0.0000
  O2     O2        0.092452341295389    0.799359009258230    0.343919790491082  0.0000
  O2     O2        0.398953920686702    0.184602515932485    0.337573583740856  0.0000
  O2     O2        0.006012860812151    0.989558017394178    0.492115630807572  0.0000
  O2     O2        0.470752293966821    0.998009465445490    0.512039458650253  0.0000
  O2     O2        0.978816976365457    0.994117152093701    0.243894002658079  0.0000
  O3     O3        0.518409688750453    0.985178744338862    0.275585354375294  0.0000
  O2     O2        0.989059344094148    0.003348670221248    0.742195938368573  0.0000
  O2     O2        0.494672910193389    0.961945105179545    0.759144755417687  0.0000
  O3     O3        0.593110061312393    0.208778531408277    0.098528530041636  0.0000
  O2     O2        0.908807735969382    0.794806673503112    0.072878977591574  0.0000
  O2     O2        0.408179822049693    0.192440722646179    0.883069268790500  0.0000
  O2     O2        0.089228671794264    0.799448640603587    0.867504469867049  0.0000
  O2     O2        0.367483675548576    0.855824852707800    0.871729015386847  0.0000
  O3     O3        0.116367664285180    0.134003957374409    0.844494991523290  0.0000
  O3     O3        0.630223368885595    0.846188885726778    0.111991125845910  0.0000
  O2     O2        0.874689140435268    0.136552594679287    0.096671083855999  0.0000
  O3     O3        0.485275247650400    0.945414018949069    0.011930110236427  0.0000
  O2     O2        0.006824006555818    0.040081636534307    0.994577797779713  0.0000
  O2     O2        0.130661203903282    0.475196164805726    0.278266670742583  0.0000
  O2     O2        0.358160322106084    0.508614750032726    0.291269347795129  0.0000
  O3     O3        0.860013419890181    0.472884933341418    0.661164950860738  0.0000
  O3     O3        0.622416776923330    0.506979233601308    0.685143423882093  0.0000
  O2     O2        0.249882883450493    0.261362091771783    0.306086946647838  0.0000
  O2     O2        0.238440625263722    0.722828990361259    0.301810858653750  0.0000
  O3     O3        0.728156879380916    0.258679470911353    0.654220297839101  0.0000
  O3     O3        0.752475409824552    0.720398041943143    0.650372274079845  0.0000
  O3     O3        0.154262710553208    0.215512015754544    0.110518523474704  0.0000
  O2     O2        0.336475190344876    0.751495031784967    0.109551594902074  0.0000
  O3     O3        0.838042906046271    0.211902442278003    0.855342164147303  0.0000
  O3     O3        0.653918093072012    0.786536996468823    0.863184648918753  0.0000
  O2     O2        0.853362990033913    0.715519740433537    0.841451442843163  0.0000
  O2     O2        0.637622366973496    0.254920538969730    0.858222809848110  0.0000
  O2     O2        0.135687173629042    0.730281356257052    0.107163421485375  0.0000
  O2     O2        0.346230530886406    0.269305557226232    0.107964397447679  0.0000
  O2     O2        0.633087575487289    0.522192647666271    0.020141094473801  0.0000
  O2     O2        0.868222176384636    0.468835495387622    0.019395322930122  0.0000
  O2     O2        0.365123414571078    0.516975963245993    0.928917883423291  0.0000
  O3     O3        0.120681809766681    0.480261681164956    0.930815329392078  0.0000
  O2     O2        0.740481458133495    0.277621506726751    0.047112344873520  0.0000
  O2     O2        0.760945669171694    0.712803416165506    0.042267030639429  0.0000
  O3     O3        0.258231668249943    0.275102580174559    0.901121126465866  0.0000
  O2     O2        0.235569435665995    0.702653107482280    0.916717504408043  0.0000
