data_c01055.vasp
_audit_creation_method             Generated by GULP
_audit_author_name                 Salvador R. G. Balestra
_symmetry_space_group_name_H-M     'P 1             '
_symmetry_Int_Tables_number        1

loop_
_symmetry_equiv_pos_site_id
_symmetry_equiv_pos_as_xyz
_cell_length_a                       17.0016
_cell_length_b                        7.6241
_cell_length_c                       10.3193
_cell_angle_alpha                   89.7775
_cell_angle_beta                    89.6931
_cell_angle_gamma                   89.6658

loop_
_atom_site_label
_atom_site_type_symbol
_atom_site_fract_x
_atom_site_fract_y
_atom_site_fract_z
_atom_site_charge
  Ge     Ge        0.556730000000016    0.000000000000000    0.122129999999970  0.0000
  Ge     Ge        0.336495607370438    0.704998197873280    0.299517502704431  0.0000
  Ge     Ge        0.167569867180833    0.274798679406016    0.983581255620935  0.0000
  Ge     Ge        0.832183732531463    0.271132895237282    0.036331709277358  0.0000
  Si     Si        0.050512309056786    0.975874190666982    0.382280396776757  0.0000
  Si     Si        0.453226176178975    0.989673783080896    0.382700168367948  0.0000
  Si     Si        0.947935005270298    0.979019399723575    0.637839129592317  0.0000
  Si     Si        0.550264130017836    0.004678468053620    0.639918503185859  0.0000
  Si     Si        0.946852869500836    0.987129911572812    0.129398717493379  0.0000
  Si     Si        0.443627938645190    0.992671315084502    0.883089353497920  0.0000
  Si     Si        0.054909571877496    0.992845304106648    0.888493968611893  0.0000
  Si     Si        0.166098712504267    0.262894198823335    0.291237929671358  0.0000
  Si     Si        0.832788766566831    0.269175452476438    0.727988124560905  0.0000
  Si     Si        0.666570884369283    0.712775835731229    0.733362592063560  0.0000
  Si     Si        0.846863200931321    0.673072758004231    0.723279612074803  0.0000
  Si     Si        0.652692093456039    0.310281047023069    0.738092690427539  0.0000
  Si     Si        0.151973562930379    0.667899738844308    0.298181287136453  0.0000
  Si     Si        0.347646499875117    0.296182901395273    0.292064866908569  0.0000
  Si     Si        0.648994659226374    0.326840892371048    0.041736246842871  0.0000
  Si     Si        0.857356222198035    0.669965067694257    0.024227331708863  0.0000
  Si     Si        0.351472087403627    0.310954784766717    0.988437884588846  0.0000
  Si     Si        0.150539244562217    0.678144744463781    0.996032348864790  0.0000
  Si     Si        0.333419822670414    0.711581998226537    0.991974072121676  0.0000
  Si     Si        0.675507886576447    0.720218598616650    0.034457223175898  0.0000
  O2     O2        0.116638475305814    0.127162486145416    0.378368108025668  0.0000
  O3     O3        0.389965954073175    0.836791678267974    0.400129331874516  0.0000
  O2     O2        0.883643792718815    0.135541345159092    0.640802825855116  0.0000
  O2     O2        0.613549552009602    0.847375241978677    0.651886272655118  0.0000
  O2     O2        0.903913137388795    0.791556618087040    0.634844036074079  0.0000
  O2     O2        0.591702951016090    0.191823927721328    0.660203776236397  0.0000
  O2     O2        0.091120925032224    0.783728414793499    0.382549784467766  0.0000
  O2     O2        0.406301993676940    0.173148085447981    0.372241761252753  0.0000
  O2     O2        0.999971291625309    0.999912927938992    0.510741701686166  0.0000
  O2     O2        0.516030826179518    0.000882450909620    0.496531319029081  0.0000
  O2     O2        0.992960560722663    0.995685287086711    0.261960139401307  0.0000
  O3     O3        0.500518962515643    0.947009937334585    0.252348992250138  0.0000
  O2     O2        0.005388237164020    0.989273773772201    0.759142502908835  0.0000
  O2     O2        0.477415693458178    0.981781391385343    0.738078796356549  0.0000
  O3     O3        0.585209885612167    0.217429684515329    0.121175443563793  0.0000
  O2     O2        0.916669096063978    0.790106093502342    0.104289185206074  0.0000
  O2     O2        0.414380881356094    0.192068791952215    0.911040522420845  0.0000
  O2     O2        0.093762290083188    0.802693977779383    0.913456209279298  0.0000
  O2     O2        0.372685644982458    0.853203127019789    0.896281104645014  0.0000
  O3     O3        0.122637931429013    0.135746672690442    0.877767210760140  0.0000
  O3     O3        0.640501625365672    0.868854968794796    0.123623749968247  0.0000
  O3     O3        0.874105489945401    0.118578595987488    0.136799537062329  0.0000
  O3     O3        0.509942110111718    0.937697069068610    0.982897541279339  0.0000
  O2     O2        0.001254854040033    0.053947977899324    0.010251970916159  0.0000
  O2     O2        0.133692319758987    0.460822800817370    0.312854018941760  0.0000
  O3     O3        0.370376787798559    0.493474514575932    0.319548319498124  0.0000
  O2     O2        0.864084367751619    0.466814649633441    0.702723783816905  0.0000
  O2     O2        0.634285377709671    0.515668655739905    0.712512988843991  0.0000
  O2     O2        0.257594880122133    0.255701357623076    0.333238115083507  0.0000
  O3     O3        0.238946364170323    0.709012763469558    0.345017481070982  0.0000
  O2     O2        0.740690567684246    0.262540576994782    0.689901665525326  0.0000
  O2     O2        0.757040134812231    0.719234230383802    0.685394292814500  0.0000
  O3     O3        0.159665374057295    0.206838813693026    0.142652557729156  0.0000
  O3     O3        0.344516345759619    0.770928263680742    0.139482655643011  0.0000
  O3     O3        0.840197188054494    0.210878127079152    0.875994817786792  0.0000
  O2     O2        0.664216161016117    0.769535487629227    0.883087718179379  0.0000
  O2     O2        0.863961181213987    0.720831794338907    0.872423308243411  0.0000
  O2     O2        0.644065480161716    0.269104211458152    0.890585627905194  0.0000
  O2     O2        0.142443965716762    0.724412195559911    0.148010701454052  0.0000
  O2     O2        0.357388204745506    0.255178209523126    0.139171153796787  0.0000
  O2     O2        0.632448889971702    0.533791886491416    0.059498203190836  0.0000
  O3     O3        0.879330889187992    0.470643194510354    0.050335048518364  0.0000
  O2     O2        0.371747096355193    0.517625306061459    0.972746638255832  0.0000
  O3     O3        0.126401071184999    0.481047916313630    0.968992971472500  0.0000
  O3     O3        0.736313412981959    0.282570578526828    0.088293620609664  0.0000
  O2     O2        0.767269418372308    0.699893818701032    0.068327243166044  0.0000
  O3     O3        0.264996671113621    0.277358731856615    0.937233412954939  0.0000
  O2     O2        0.241534889892907    0.704539138823085    0.955849036377836  0.0000
