data_c01051.vasp
_audit_creation_method             Generated by GULP
_audit_author_name                 Salvador R. G. Balestra
_symmetry_space_group_name_H-M     'P 1             '
_symmetry_Int_Tables_number        1

loop_
_symmetry_equiv_pos_site_id
_symmetry_equiv_pos_as_xyz
_cell_length_a                       17.1229
_cell_length_b                        7.5960
_cell_length_c                       10.2916
_cell_angle_alpha                   89.0565
_cell_angle_beta                    90.5236
_cell_angle_gamma                   89.0921

loop_
_atom_site_label
_atom_site_type_symbol
_atom_site_fract_x
_atom_site_fract_y
_atom_site_fract_z
_atom_site_charge
  Ge     Ge        0.556730000000016    0.000000000000000    0.122129999999970  0.0000
  Ge     Ge        0.328449641517670    0.713185604378421    0.285973314854747  0.0000
  Ge     Ge        0.328360429682387    0.728898698238199    0.972218859494328  0.0000
  Ge     Ge        0.164766069299777    0.266792293722266    0.963723201236258  0.0000
  Si     Si        0.040395718431364    0.982240308031201    0.362183288784190  0.0000
  Si     Si        0.445440053387119    0.000729218148031    0.367180377367263  0.0000
  Si     Si        0.938965207700935    0.997289143879796    0.617214280624469  0.0000
  Si     Si        0.539811118593801    0.036089532532444    0.630712000068190  0.0000
  Si     Si        0.940844524775978    0.990671220059592    0.105627242014793  0.0000
  Si     Si        0.441760780967166    0.013538486668357    0.887471702618289  0.0000
  Si     Si        0.048474037495770    0.992962034977891    0.866943342970778  0.0000
  Si     Si        0.158493048238666    0.264949825508329    0.275093463570776  0.0000
  Si     Si        0.826407207433857    0.292060922754964    0.703433645641788  0.0000
  Si     Si        0.656140470171008    0.734912807655373    0.718127781076716  0.0000
  Si     Si        0.835750506283393    0.695654469361212    0.703079697154218  0.0000
  Si     Si        0.646668339401865    0.328416101577504    0.714051400697892  0.0000
  Si     Si        0.142663021311648    0.674723027217865    0.272258021007669  0.0000
  Si     Si        0.333445584987128    0.315984823903288    0.280822074680479  0.0000
  Si     Si        0.648339449640776    0.322655177135916    0.015405390240740  0.0000
  Si     Si        0.849426795520546    0.676289258064469    0.005162051515587  0.0000
  Si     Si        0.341362904253278    0.330578242487934    0.973405413575720  0.0000
  Si     Si        0.143442600638105    0.680459685258738    0.970328269886332  0.0000
  Si     Si        0.669315059244308    0.720529570794545    0.019213580828445  0.0000
  Si     Si        0.829423905461680    0.281107070321628    0.006734241360681  0.0000
  O2     O2        0.104899469632005    0.134631816490800    0.358326486712181  0.0000
  O3     O3        0.383244861917984    0.848795107196498    0.383218656221744  0.0000
  O2     O2        0.877326256373746    0.161083419945866    0.615953981849677  0.0000
  O2     O2        0.598957566526573    0.867815634668491    0.638243492630883  0.0000
  O2     O2        0.890926771165462    0.816467171803986    0.615369402858255  0.0000
  O2     O2        0.589050104700383    0.215323831632289    0.625994249123046  0.0000
  O2     O2        0.082624762944991    0.790490113301627    0.357236388024115  0.0000
  O2     O2        0.401970104448550    0.177314445789180    0.311491151815287  0.0000
  O2     O2        0.993728378651294    0.003540048509305    0.493904747350334  0.0000
  O2     O2        0.486601350710452    0.034331615450976    0.503869877148523  0.0000
  O2     O2        0.978030299326840    0.005912467400066    0.246654727391430  0.0000
  O3     O3        0.513327734236135    0.957623881685801    0.267122963542700  0.0000
  O2     O2        0.993682347061170    0.007874796959183    0.742613615318283  0.0000
  O2     O2        0.481107714037756    0.042425763824309    0.749812430418602  0.0000
  O3     O3        0.591102914388035    0.212032480838535    0.104335428906190  0.0000
  O2     O2        0.909395105360070    0.793273616102099    0.085686200662680  0.0000
  O2     O2        0.414561697129827    0.202555188280920    0.946271796772901  0.0000
  O2     O2        0.083394082250867    0.795098291010484    0.880902998624207  0.0000
  O3     O3        0.370659281669679    0.882992060126869    0.871802350130287  0.0000
  O3     O3        0.117198143969208    0.131893859978625    0.858649269641414  0.0000
  O3     O3        0.636052446017310    0.856715738367533    0.118363628784903  0.0000
  O2     O2        0.869704821614130    0.131214550506830    0.095792784779135  0.0000
  O3     O3        0.500102392831467    0.931378362904771    0.994362719050471  0.0000
  O2     O2        0.002470324432214    0.045884698714611    0.996882614588940  0.0000
  O2     O2        0.136419036061555    0.467335201424416    0.307379367895435  0.0000
  O3     O3        0.347919999064884    0.500888646286095    0.345987565031299  0.0000
  O2     O2        0.852079432080800    0.491518313138761    0.671631829116504  0.0000
  O2     O2        0.628690706841882    0.535781232581310    0.692448519684659  0.0000
  O2     O2        0.249644689695383    0.231498189356859    0.316487159062827  0.0000
  O3     O3        0.228832308469306    0.743899866751103    0.298569597844344  0.0000
  O2     O2        0.734500627048575    0.278347945265615    0.671341169104868  0.0000
  O2     O2        0.745778178118852    0.751002633100752    0.672489579351916  0.0000
  O3     O3        0.147084790517517    0.219805213717737    0.124946381050453  0.0000
  O1     O1        0.356169715608980    0.763111530922369    0.130325341331314  0.0000
  O2     O2        0.839427829563665    0.239533202826004    0.854529892053755  0.0000
  O2     O2        0.652131651238361    0.782162795203170    0.869810224285480  0.0000
  O2     O2        0.857142799408761    0.727786188048007    0.853407822212533  0.0000
  O2     O2        0.632708103622087    0.274962603163581    0.864533635464113  0.0000
  O2     O2        0.119477960671800    0.701424311285548    0.121167862567101  0.0000
  O2     O2        0.329270064932603    0.371611437012068    0.127375457205629  0.0000
  O2     O2        0.631289924584154    0.528474545100965    0.039350086937960  0.0000
  O2     O2        0.869141851464527    0.470008574418262    0.032115030748534  0.0000
  O3     O3        0.353670274015617    0.522475057209451    0.913457046571068  0.0000
  O3     O3        0.138973482458507    0.482096188606420    0.926700785534831  0.0000
  O2     O2        0.739141211235912    0.281400210152497    0.046769625931536  0.0000
  O2     O2        0.761400949892310    0.711640642880922    0.048256640293877  0.0000
  O3     O3        0.262688141323084    0.239676530260312    0.927114150950280  0.0000
  O3     O3        0.229109243279760    0.758256795643458    0.957008411507017  0.0000
