data_c01014.vasp
_audit_creation_method             Generated by GULP
_audit_author_name                 Salvador R. G. Balestra
_symmetry_space_group_name_H-M     'P 1             '
_symmetry_Int_Tables_number        1

loop_
_symmetry_equiv_pos_site_id
_symmetry_equiv_pos_as_xyz
_cell_length_a                       17.1140
_cell_length_b                        7.6296
_cell_length_c                       10.2669
_cell_angle_alpha                   90.3697
_cell_angle_beta                    89.8420
_cell_angle_gamma                   89.6783

loop_
_atom_site_label
_atom_site_type_symbol
_atom_site_fract_x
_atom_site_fract_y
_atom_site_fract_z
_atom_site_charge
  Ge     Ge        0.556730000000016    0.000000000000000    0.122129999999970  0.0000
  Ge     Ge        0.332455416760884    0.710366286751321    0.300990137800593  0.0000
  Ge     Ge        0.844622056574617    0.666015799775611    0.714937282776454  0.0000
  Ge     Ge        0.167411173233708    0.272306890162864    0.980520509403746  0.0000
  Si     Si        0.047346093850202    0.987490894133205    0.380510757242256  0.0000
  Si     Si        0.449568601649728    0.996136806848083    0.380819831419675  0.0000
  Si     Si        0.948123637233095    0.971178344409927    0.636593677472084  0.0000
  Si     Si        0.546273302493433    0.996632084437646    0.638654864403486  0.0000
  Si     Si        0.945805623104198    0.992392441210716    0.127424661596690  0.0000
  Si     Si        0.442759143586668    0.992568540491589    0.883388737179353  0.0000
  Si     Si        0.056132912003843    0.986286629987183    0.887315847864226  0.0000
  Si     Si        0.163944597775288    0.271445501689338    0.290058220073866  0.0000
  Si     Si        0.831118906250257    0.258690348946421    0.729499498501318  0.0000
  Si     Si        0.662113587031212    0.703029828086751    0.730363147028671  0.0000
  Si     Si        0.650877796413242    0.298025324251811    0.740827440663038  0.0000
  Si     Si        0.149314888511973    0.677304856897907    0.293800461460980  0.0000
  Si     Si        0.343756942923392    0.301877361221158    0.296509112047199  0.0000
  Si     Si        0.653493675543158    0.318898100603040    0.042649441148594  0.0000
  Si     Si        0.853855564675343    0.675429653547143    0.025212380539448  0.0000
  Si     Si        0.349550500677570    0.309993712098447    0.990340828884237  0.0000
  Si     Si        0.151728506319906    0.675556481593516    0.989972983196009  0.0000
  Si     Si        0.333135575897536    0.709743295136321    0.991625371655403  0.0000
  Si     Si        0.674045059367435    0.715702907653617    0.034550720266003  0.0000
  Si     Si        0.833906078240401    0.278920178932984    0.034277388523980  0.0000
  O2     O2        0.112915520486004    0.137931334974153    0.374691737041329  0.0000
  O3     O3        0.386825623162522    0.843868511012747    0.399663120556264  0.0000
  O2     O2        0.876536032675039    0.109490780636696    0.648935744319110  0.0000
  O2     O2        0.603393670958588    0.829609286920649    0.653496091386166  0.0000
  O3     O3        0.908982986076092    0.783286554114312    0.620916100501914  0.0000
  O2     O2        0.592463585758354    0.177468740781440    0.659327147504555  0.0000
  O2     O2        0.087108144812265    0.794715306399581    0.374295105045846  0.0000
  O2     O2        0.402322154809030    0.179627584198378    0.376954497728437  0.0000
  O2     O2        0.002795999483056    0.014314577614504    0.515553937367298  0.0000
  O2     O2        0.514027305195005    0.999135744095636    0.492928757919289  0.0000
  O2     O2        0.984038864328247    0.008749998637462    0.267741004353216  0.0000
  O3     O3        0.493816941071940    0.960095089269582    0.246037908268238  0.0000
  O2     O2        0.000929375285480    0.981875908977363    0.764348485385740  0.0000
  O2     O2        0.472397618688866    0.985155432517344    0.735067384595881  0.0000
  O3     O3        0.594704848218814    0.209857979415055    0.130234268160191  0.0000
  O2     O2        0.912794547164410    0.796168871147411    0.107932000250546  0.0000
  O2     O2        0.413221714956217    0.190025958756340    0.916447870094120  0.0000
  O2     O2        0.097103007280113    0.797196540868281    0.902266928189354  0.0000
  O2     O2        0.373924890315554    0.850017226338811    0.898055772784602  0.0000
  O3     O3        0.121986005060361    0.132260552794700    0.874482480389176  0.0000
  O3     O3        0.634916893805878    0.855721898018329    0.127497385955072  0.0000
  O2     O2        0.876902902400279    0.136681738425922    0.122797740600068  0.0000
  O3     O3        0.512571021366444    0.944018874807220    0.977778264403119  0.0000
  O2     O2        0.008600231212520    0.040436416778456    0.017324233599943  0.0000
  O2     O2        0.132082639631119    0.470160562793415    0.309826083148826  0.0000
  O3     O3        0.365557855341653    0.499685963192644    0.325229661697829  0.0000
  O3     O3        0.863319448419972    0.446590286978098    0.690453249188516  0.0000
  O2     O2        0.633028536554199    0.502262280379549    0.714043090494161  0.0000
  O2     O2        0.254054838718198    0.262735920217501    0.337117869439015  0.0000
  O3     O3        0.235155085730707    0.720529669617028    0.343904077587739  0.0000
  O2     O2        0.739011132188763    0.251330682261899    0.696487543448876  0.0000
  O3     O3        0.749158442275610    0.715512301201416    0.674759610861281  0.0000
  O3     O3        0.159719401476389    0.210909912933861    0.141096923690022  0.0000
  O3     O3        0.342245027686013    0.771089710083641    0.139951008954889  0.0000
  O2     O2        0.841853905754068    0.224678684559293    0.883229976158648  0.0000
  O2     O2        0.664381987435172    0.760585171812947    0.881758245527551  0.0000
  O3     O3        0.864278532149563    0.720635125101030    0.874883887359841  0.0000
  O2     O2        0.638973467277600    0.256634446718938    0.893336754451636  0.0000
  O2     O2        0.141904018975486    0.727767261003657    0.141837006753281  0.0000
  O2     O2        0.352974197802258    0.260557996787639    0.142683125895727  0.0000
  O2     O2        0.636274338059783    0.524762244307731    0.060305866128171  0.0000
  O2     O2        0.872658426579941    0.470620140892780    0.053122042081248  0.0000
  O2     O2        0.370934529352813    0.515456950004813    0.973261095624385  0.0000
  O3     O3        0.127186545694582    0.478559798730750    0.963815086982156  0.0000
  O2     O2        0.743730907459398    0.280783284618232    0.078243358761209  0.0000
  O2     O2        0.765391520583258    0.713339353322314    0.069280076532172  0.0000
  O3     O3        0.264471731743266    0.273733403199754    0.935285476124485  0.0000
  O2     O2        0.242358608162905    0.701335936110737    0.951948399487427  0.0000
