data_c01019.vasp
_audit_creation_method             Generated by GULP
_audit_author_name                 Salvador R. G. Balestra
_symmetry_space_group_name_H-M     'P 1             '
_symmetry_Int_Tables_number        1

loop_
_symmetry_equiv_pos_site_id
_symmetry_equiv_pos_as_xyz
_cell_length_a                       17.1039
_cell_length_b                        7.6026
_cell_length_c                       10.2869
_cell_angle_alpha                   88.5824
_cell_angle_beta                    89.3859
_cell_angle_gamma                   89.8955

loop_
_atom_site_label
_atom_site_type_symbol
_atom_site_fract_x
_atom_site_fract_y
_atom_site_fract_z
_atom_site_charge
  Ge     Ge        0.556730000000016    0.000000000000000    0.122129999999970  0.0000
  Ge     Ge        0.332173702074294    0.718388463049058    0.298136569244858  0.0000
  Ge     Ge        0.654609846551183    0.328258223302883    0.725134027739523  0.0000
  Ge     Ge        0.354654045704833    0.332323127136456    0.981174121530911  0.0000
  Si     Si        0.047990763679097    0.986059595905028    0.371745026295069  0.0000
  Si     Si        0.449644417401654    0.996829190838301    0.380547768443159  0.0000
  Si     Si        0.955676304912132    0.005682581814679    0.638097094158923  0.0000
  Si     Si        0.552394976221629    0.024121403692962    0.628526921774653  0.0000
  Si     Si        0.944239162335312    0.991158643766032    0.123960221777834  0.0000
  Si     Si        0.448446461127321    0.016731329613176    0.876117386186071  0.0000
  Si     Si        0.060778135109360    0.008321913557253    0.888422688621892  0.0000
  Si     Si        0.167712449747672    0.275459504485794    0.279016546548846  0.0000
  Si     Si        0.837806724073495    0.293936126778573    0.720139913356636  0.0000
  Si     Si        0.670949550558468    0.741666351849680    0.733224441441521  0.0000
  Si     Si        0.850873575238772    0.697286665673228    0.725906729994502  0.0000
  Si     Si        0.149417764423119    0.677317638378400    0.290095385207113  0.0000
  Si     Si        0.347954607442198    0.305069722801320    0.288616615691902  0.0000
  Si     Si        0.652590308051744    0.321186890030996    0.032199236190955  0.0000
  Si     Si        0.854068792477451    0.675466210322499    0.028916576661558  0.0000
  Si     Si        0.155604373733709    0.691115147897408    0.986075774156322  0.0000
  Si     Si        0.335879007078879    0.740390675738957    0.990623275391448  0.0000
  Si     Si        0.172248670576655    0.296334682748492    0.973601715553175  0.0000
  Si     Si        0.674530968877701    0.721384915772440    0.034907846217168  0.0000
  Si     Si        0.833175195567384    0.280110909892461    0.025834090370989  0.0000
  O2     O2        0.116997976759819    0.128574464783580    0.354203705660100  0.0000
  O3     O3        0.385314649612497    0.845511579577820    0.400951641155249  0.0000
  O2     O2        0.893702958882677    0.165455030206615    0.640095649508639  0.0000
  O2     O2        0.624179159114406    0.889045795276788    0.651610483400305  0.0000
  O2     O2        0.909563235613112    0.820959349102082    0.643046316631648  0.0000
  O3     O3        0.587694291783854    0.217886421818802    0.634045822458815  0.0000
  O2     O2        0.085101656192160    0.790447752314318    0.367517678633314  0.0000
  O2     O2        0.404538556672548    0.184035280419718    0.377629778931255  0.0000
  O2     O2        0.006461520926057    0.016568227318583    0.508051145773138  0.0000
  O2     O2        0.516392796064029    0.994473705484235    0.488067798241745  0.0000
  O2     O2        0.982836166375018    0.012136391997444    0.262557422434362  0.0000
  O3     O3        0.492633987056661    0.958042839904480    0.245491897468348  0.0000
  O2     O2        0.014717333198340    0.022077129470788    0.755937949222809  0.0000
  O2     O2        0.482387963563773    0.991760790682580    0.731877294199210  0.0000
  O3     O3        0.594499801562794    0.211058807737905    0.124916887613532  0.0000
  O2     O2        0.912909437906215    0.791788126685466    0.111720505594986  0.0000
  O3     O3        0.423034861159962    0.218376044683813    0.893039602380767  0.0000
  O2     O2        0.100981450147814    0.816956796623025    0.899415257251160  0.0000
  O2     O2        0.372182604417928    0.892781778379766    0.897524430105565  0.0000
  O2     O2        0.126003590217032    0.160351261059953    0.886753583212161  0.0000
  O3     O3        0.633431099040580    0.851202497557326    0.131230096727299  0.0000
  O2     O2        0.873063163027580    0.128889924936329    0.112967014692181  0.0000
  O3     O3        0.512181545951329    0.954163440958550    0.978383632879096  0.0000
  O2     O2        0.005056184140407    0.042077297501345    0.010674287424440  0.0000
  O2     O2        0.132890452873986    0.468562492996813    0.308292917727714  0.0000
  O3     O3        0.367430850194433    0.506245146741874    0.310300535389330  0.0000
  O2     O2        0.867316814979255    0.494107815501312    0.695011431793282  0.0000
  O3     O3        0.636900801724054    0.550844667669091    0.707093548235797  0.0000
  O2     O2        0.257167790090004    0.265384413604625    0.327029513760727  0.0000
  O3     O3        0.234681789308081    0.720067076018112    0.342011354621754  0.0000
  O3     O3        0.748956151639446    0.279972496006860    0.675830847087433  0.0000
  O2     O2        0.761969025681064    0.746063757339326    0.688921928242810  0.0000
  O2     O2        0.168664158369906    0.238652883849166    0.125670662155336  0.0000
  O3     O3        0.341062540831322    0.795885730977951    0.139487879422321  0.0000
  O2     O2        0.840782144342780    0.240805591380310    0.873175219323553  0.0000
  O2     O2        0.665936704951913    0.788161228367255    0.885262514584170  0.0000
  O2     O2        0.865552132093065    0.730351749829253    0.877771501073159  0.0000
  O3     O3        0.638226138298289    0.263487561305922    0.885115778648397  0.0000
  O2     O2        0.143286578668230    0.732490912265771    0.137768702464473  0.0000
  O3     O3        0.363554434112734    0.256228321535996    0.139767806251324  0.0000
  O2     O2        0.635650954502411    0.527825061496644    0.047666011140428  0.0000
  O2     O2        0.872898702908467    0.469049715048079    0.053091828739556  0.0000
  O3     O3        0.377534957143453    0.553310614858388    0.972123938865809  0.0000
  O2     O2        0.133581362659726    0.490143432916492    0.956486678631752  0.0000
  O2     O2        0.742665570311209    0.281344247946008    0.067471850805225  0.0000
  O2     O2        0.765420853812842    0.711696269125585    0.072636847120805  0.0000
  O3     O3        0.261247047946644    0.299347782739365    0.926291512774322  0.0000
  O2     O2        0.245884544375268    0.720539070686331    0.949002605335002  0.0000
