data_c01085.vasp
_audit_creation_method             Generated by GULP
_audit_author_name                 Salvador R. G. Balestra
_symmetry_space_group_name_H-M     'P 1             '
_symmetry_Int_Tables_number        1

loop_
_symmetry_equiv_pos_site_id
_symmetry_equiv_pos_as_xyz
_cell_length_a                       17.0355
_cell_length_b                        7.6094
_cell_length_c                       10.3043
_cell_angle_alpha                   89.7357
_cell_angle_beta                    90.6276
_cell_angle_gamma                   91.1042

loop_
_atom_site_label
_atom_site_type_symbol
_atom_site_fract_x
_atom_site_fract_y
_atom_site_fract_z
_atom_site_charge
  Ge     Ge        0.556730000000016    0.000000000000000    0.122129999999970  0.0000
  Ge     Ge        0.849283745903137    0.341453812865387    0.708246911844123  0.0000
  Ge     Ge        0.676752617884430    0.289743487926831    0.031871620452570  0.0000
  Ge     Ge        0.861530409841083    0.355608833491964    0.027815292263496  0.0000
  Si     Si        0.047640589193254    0.999136389978449    0.369892950137639  0.0000
  Si     Si        0.445376535971422    0.004238963527641    0.374592764803933  0.0000
  Si     Si        0.951083700842977    0.031075957215775    0.627355168569915  0.0000
  Si     Si        0.545452329244095    0.004536191410952    0.632352779181075  0.0000
  Si     Si        0.947053497559702    0.028977373425838    0.118007794527916  0.0000
  Si     Si        0.445181308783418    0.018850827841896    0.880075159993580  0.0000
  Si     Si        0.057042450459549    0.006396456928322    0.880090865806161  0.0000
  Si     Si        0.151674349119829    0.309643513604386    0.278916094065242  0.0000
  Si     Si        0.342230911980488    0.695280489704134    0.292890925317633  0.0000
  Si     Si        0.649526556118757    0.702660064474454    0.726333362838866  0.0000
  Si     Si        0.829348190820586    0.749917394414739    0.714907487075208  0.0000
  Si     Si        0.667893999191828    0.295311483854578    0.721797323983074  0.0000
  Si     Si        0.161286179652892    0.713734051664659    0.281378947203042  0.0000
  Si     Si        0.333565159145216    0.292413269471526    0.287396429448816  0.0000
  Si     Si        0.832193889920988    0.750885175253246    0.020353662295074  0.0000
  Si     Si        0.335759352643484    0.301489810109826    0.984748945593171  0.0000
  Si     Si        0.166569265931479    0.721317358885236    0.978655466951263  0.0000
  Si     Si        0.347945483059702    0.702211421912351    0.990170407044656  0.0000
  Si     Si        0.153812519118251    0.320347135454158    0.977808372057515  0.0000
  Si     Si        0.650278730984216    0.686964236894892    0.025103068548679  0.0000
  O2     O2        0.094012994422593    0.185952524658969    0.362005705618305  0.0000
  O2     O2        0.398671909385284    0.817061410110073    0.381712307123700  0.0000
  O3     O3        0.918046126420574    0.225428497613444    0.622317920964435  0.0000
  O2     O2        0.588075563364357    0.816878255172453    0.643409648258435  0.0000
  O2     O2        0.874319563453269    0.903102066153432    0.636133706295646  0.0000
  O2     O2        0.607645762903108    0.164508959555757    0.647488896107326  0.0000
  O2     O2        0.109457889273449    0.841591067400242    0.366498732108425  0.0000
  O2     O2        0.382605867778007    0.161455994648806    0.377769232501767  0.0000
  O2     O2        0.000494114971494    0.987335802791201    0.501545618125250  0.0000
  O2     O2        0.507529817512975    0.018917421130120    0.490389083573211  0.0000
  O2     O2        0.985352052930730    0.975340820866396    0.253975434811051  0.0000
  O3     O3        0.490856539733198    0.023209088014198    0.241773692440112  0.0000
  O2     O2        0.009020246129563    0.994427813208026    0.747829506890057  0.0000
  O2     O2        0.474589955336469    0.017504038766266    0.733158039295727  0.0000
  O1     O1        0.634604819999609    0.142176244823307    0.134259603794710  0.0000
  O2     O2        0.864899290939637    0.919032091523480    0.100128417116859  0.0000
  O2     O2        0.379820865240504    0.168144845116457    0.893146071074367  0.0000
  O2     O2        0.122594656266405    0.856084593377849    0.884567491499360  0.0000
  O2     O2        0.408551798062740    0.826569942017891    0.914389303182313  0.0000
  O2     O2        0.098262409406281    0.199608019580326    0.887373055120967  0.0000
  O3     O3        0.593652284239305    0.791072688423002    0.117442156203164  0.0000
  O3     O3        0.930533508002288    0.233946771748976    0.112194854315457  0.0000
  O3     O3        0.516173398217149    0.065111950447350    0.974850510469920  0.0000
  O2     O2        0.001524883177608    0.968603118433204    0.000961102133602  0.0000
  O2     O2        0.133714187677237    0.512732018741449    0.307666518769148  0.0000
  O2     O2        0.359978899742152    0.491811935023003    0.321582740948237  0.0000
  O3     O3        0.865782749487168    0.564165290760139    0.682947886798228  0.0000
  O2     O2        0.633956658050511    0.493780257738088    0.711819898870785  0.0000
  O2     O2        0.241331258024632    0.266406827771323    0.315814829089448  0.0000
  O2     O2        0.252095514438862    0.736864578244459    0.323772602185415  0.0000
  O3     O3        0.753569569954432    0.294007677105740    0.659070782861514  0.0000
  O2     O2        0.736979464767030    0.749701033052194    0.676181013684571  0.0000
  O2     O2        0.135960661598821    0.270397734861120    0.127058366602951  0.0000
  O2     O2        0.360007906336752    0.739965152534396    0.142760740636610  0.0000
  O1     O1        0.864917031184221    0.293837551684535    0.868224665820627  0.0000
  O2     O2        0.639189603468334    0.756912721884825    0.876604256529053  0.0000
  O2     O2        0.835737019112862    0.791988381744697    0.867380317397523  0.0000
  O3     O3        0.678714374452308    0.232788396468431    0.869289442105890  0.0000
  O2     O2        0.152238280514476    0.763815773092658    0.129693507046421  0.0000
  O2     O2        0.349168005217442    0.252470180811883    0.135966030926066  0.0000
  O3     O3        0.627050388603290    0.485699339266856    0.038792437642831  0.0000
  O3     O3        0.882011406727682    0.578195128679798    0.047237151168542  0.0000
  O2     O2        0.367264980810628    0.500106843122116    0.959149965235315  0.0000
  O2     O2        0.135049419338172    0.523677088882430    0.948955341001564  0.0000
  O1     O1        0.770676872089453    0.314196334539376    0.087585267890925  0.0000
  O2     O2        0.742458662867510    0.714318657105292    0.062778444827275  0.0000
  O2     O2        0.244213351426905    0.285356422926458    0.948198378832082  0.0000
  O2     O2        0.258734066411471    0.740559329000559    0.948218311575706  0.0000
