data_c01041.vasp
_audit_creation_method             Generated by GULP
_audit_author_name                 Salvador R. G. Balestra
_symmetry_space_group_name_H-M     'P 1             '
_symmetry_Int_Tables_number        1

loop_
_symmetry_equiv_pos_site_id
_symmetry_equiv_pos_as_xyz
_cell_length_a                       16.9720
_cell_length_b                        7.5919
_cell_length_c                       10.3294
_cell_angle_alpha                   89.3035
_cell_angle_beta                    89.9912
_cell_angle_gamma                   89.2258

loop_
_atom_site_label
_atom_site_type_symbol
_atom_site_fract_x
_atom_site_fract_y
_atom_site_fract_z
_atom_site_charge
  Ge     Ge        0.556730000000016    0.000000000000000    0.122129999999970  0.0000
  Ge     Ge        0.340161039946430    0.714795130746299    0.297904633537717  0.0000
  Ge     Ge        0.863281360810300    0.653007948373152    0.042097654831281  0.0000
  Ge     Ge        0.832024048920772    0.245679197466726    0.037111831239543  0.0000
  Si     Si        0.053398243759794    0.989723271721427    0.387738908223624  0.0000
  Si     Si        0.456969646766900    0.993986474691220    0.385890966045802  0.0000
  Si     Si        0.953059595727735    0.992321182443217    0.645290878179082  0.0000
  Si     Si        0.554146193587816    0.019170723881687    0.641932950060964  0.0000
  Si     Si        0.948576742367246    0.971235226583204    0.141141348862217  0.0000
  Si     Si        0.443982707323784    0.996909518098157    0.880437475952130  0.0000
  Si     Si        0.055522504475171    0.003191271714041    0.899558398723566  0.0000
  Si     Si        0.169188539413765    0.275429893608829    0.295696426261440  0.0000
  Si     Si        0.834669664673060    0.276599776820003    0.730345644183219  0.0000
  Si     Si        0.672994020151196    0.726805034806011    0.741267639749287  0.0000
  Si     Si        0.852799531792159    0.684394652310369    0.736933086268322  0.0000
  Si     Si        0.655173675674657    0.324566799437998    0.736071197765328  0.0000
  Si     Si        0.154754024158025    0.680024061749219    0.299721199890530  0.0000
  Si     Si        0.351840184931794    0.301817864965548    0.294320058160474  0.0000
  Si     Si        0.649582237567917    0.325718680595649    0.039338625374004  0.0000
  Si     Si        0.350363740313771    0.311253075817145    0.993450307609875  0.0000
  Si     Si        0.153072263884717    0.685037781667102    0.997148080094257  0.0000
  Si     Si        0.335419471265324    0.716261089283043    0.990514247718391  0.0000
  Si     Si        0.168294832667977    0.284697673641293    0.993820822268899  0.0000
  Si     Si        0.678722465848228    0.717694704077570    0.043797459700025  0.0000
  O2     O2        0.120846011916169    0.137566950400259    0.381895211910160  0.0000
  O3     O3        0.392930308427918    0.842311115316269    0.401765087857567  0.0000
  O2     O2        0.886896183375083    0.147508136835668    0.640868066129561  0.0000
  O2     O2        0.620459482872148    0.868705040346565    0.663586593574723  0.0000
  O2     O2        0.911842377121612    0.801560919224763    0.649755276545086  0.0000
  O2     O2        0.592810688180752    0.211011137319145    0.656265226604493  0.0000
  O2     O2        0.093026866144327    0.795717435573909    0.381851811442434  0.0000
  O2     O2        0.410172830516054    0.180093266073512    0.378774877956741  0.0000
  O2     O2        0.005104559635799    0.007625273295802    0.518006089660676  0.0000
  O2     O2        0.521727044529576    0.001433713568461    0.497562935666280  0.0000
  O2     O2        0.993739645516593    0.022470278180046    0.269846539176442  0.0000
  O3     O3        0.500731022400798    0.950352017918513    0.253056797519146  0.0000
  O2     O2        0.011952213416618    0.019542903913884    0.764160188127237  0.0000
  O2     O2        0.479935037600544    0.996932105818042    0.737032493754849  0.0000
  O3     O3        0.584414614868838    0.217982602610497    0.116456299953385  0.0000
  O3     O3        0.931603049332742    0.765429902881406    0.132422863070500  0.0000
  O2     O2        0.408438001810123    0.192189348920075    0.907923625003678  0.0000
  O2     O2        0.093638868145970    0.807520819317780    0.914544055124537  0.0000
  O2     O2        0.376231559458400    0.849444165029289    0.889949555894336  0.0000
  O2     O2        0.123549746891112    0.149238965171105    0.903394250732175  0.0000
  O3     O3        0.640068507012115    0.866904014702562    0.129018852865679  0.0000
  O3     O3        0.865573833122873    0.073326102123900    0.131938567381170  0.0000
  O3     O3        0.510166993603293    0.941813049742091    0.981729371021278  0.0000
  O2     O2        0.995371611276250    0.044881216155846    0.015110996591783  0.0000
  O2     O2        0.139128226554668    0.473251324678293    0.325387115555309  0.0000
  O3     O3        0.371900958649505    0.500533789927015    0.320777257214626  0.0000
  O2     O2        0.868660386066160    0.474760029433186    0.721227519996459  0.0000
  O2     O2        0.637585449808286    0.532985689149607    0.716425067485830  0.0000
  O2     O2        0.261427349103945    0.258579133352435    0.331144520063759  0.0000
  O3     O3        0.242103322765792    0.728609286233544    0.339723635904496  0.0000
  O2     O2        0.743208741018067    0.279787356920813    0.685210979576102  0.0000
  O2     O2        0.763356033193915    0.731061215791168    0.692249736840841  0.0000
  O2     O2        0.157917118267491    0.231886199857710    0.144448520428415  0.0000
  O3     O3        0.350371934693948    0.775633881316486    0.136754531880976  0.0000
  O3     O3        0.837146551575719    0.199467498548610    0.874334885046773  0.0000
  O2     O2        0.674862690697645    0.774752717469819    0.892149343504280  0.0000
  O3     O3        0.869073074257466    0.731931020999006    0.884284124364325  0.0000
  O2     O2        0.646724268958909    0.273420062753187    0.887126552930143  0.0000
  O2     O2        0.141208067192078    0.727193688104467    0.148232715151024  0.0000
  O2     O2        0.365821098836980    0.257374530127546    0.142824001391576  0.0000
  O2     O2        0.632240196349657    0.532869521480924    0.058642909448632  0.0000
  O1     O1        0.884063932389626    0.435220699872600    0.059538019187949  0.0000
  O2     O2        0.369012786875859    0.517179205040106    0.971617415502227  0.0000
  O2     O2        0.133635442398349    0.481629655268143    0.968921730381078  0.0000
  O3     O3        0.736389694900227    0.277048823188707    0.088214084799235  0.0000
  O3     O3        0.767251830986204    0.688065171287185    0.090521034997611  0.0000
  O2     O2        0.260098325293779    0.275607419584327    0.955970420325840  0.0000
  O2     O2        0.242728947990950    0.722962417111293    0.958637412773633  0.0000
