data_c01057.vasp
_audit_creation_method             Generated by GULP
_audit_author_name                 Salvador R. G. Balestra
_symmetry_space_group_name_H-M     'P 1             '
_symmetry_Int_Tables_number        1

loop_
_symmetry_equiv_pos_site_id
_symmetry_equiv_pos_as_xyz
_cell_length_a                       17.0638
_cell_length_b                        7.6318
_cell_length_c                       10.3015
_cell_angle_alpha                   91.0791
_cell_angle_beta                    90.5064
_cell_angle_gamma                   89.4655

loop_
_atom_site_label
_atom_site_type_symbol
_atom_site_fract_x
_atom_site_fract_y
_atom_site_fract_z
_atom_site_charge
  Ge     Ge        0.556730000000016    0.000000000000000    0.122129999999970  0.0000
  Ge     Ge        0.825679200295973    0.234719074279405    0.703951542662435  0.0000
  Ge     Ge        0.661349506978365    0.711252235671744    0.703173010351536  0.0000
  Ge     Ge        0.849596393774672    0.654373969613642    0.697749629007123  0.0000
  Si     Si        0.047598381828900    0.985301703774388    0.358927516511118  0.0000
  Si     Si        0.445008984991616    0.989282219694445    0.364899509373006  0.0000
  Si     Si        0.950858979675618    0.956908549176023    0.613449884993620  0.0000
  Si     Si        0.538963563489338    0.991392640084970    0.624529764827595  0.0000
  Si     Si        0.936169507762318    0.974271536986613    0.116778168476558  0.0000
  Si     Si        0.440618497020603    0.967706252837095    0.879599790155179  0.0000
  Si     Si        0.047515072638978    0.977562689811542    0.875607009958203  0.0000
  Si     Si        0.158274986226147    0.276998255880701    0.262582360001750  0.0000
  Si     Si        0.333474930967740    0.692760503883307    0.260727044380677  0.0000
  Si     Si        0.643834658014391    0.295677333200497    0.708444325533064  0.0000
  Si     Si        0.153175924214381    0.680075019739660    0.262115515164321  0.0000
  Si     Si        0.338781255158496    0.289834415855502    0.263395493586282  0.0000
  Si     Si        0.646216853345845    0.318680557107119    0.013182842197794  0.0000
  Si     Si        0.850546105212354    0.656791427587808    0.001037825436201  0.0000
  Si     Si        0.339655025946770    0.282962833304785    0.960066156096558  0.0000
  Si     Si        0.149043912855449    0.667829813250400    0.958743102015105  0.0000
  Si     Si        0.329975049039320    0.681110512064391    0.956956309778864  0.0000
  Si     Si        0.158493580151727    0.269273640196014    0.959282621213401  0.0000
  Si     Si        0.666518431962143    0.714944199049957    0.005123488795530  0.0000
  Si     Si        0.827486882476185    0.261269982268833    0.014231081763690  0.0000
  O2     O2        0.104157329950657    0.151288155157894    0.344825248591577  0.0000
  O2     O2        0.388826897836127    0.823353644092259    0.340820391672790  0.0000
  O3     O3        0.876418829106546    0.086543845432038    0.609737553073138  0.0000
  O3     O3        0.604746737108181    0.842766968920621    0.604505266544785  0.0000
  O3     O3        0.917930617268745    0.762247282378553    0.605851918782033  0.0000
  O2     O2        0.578325721241238    0.183164651700895    0.631207401635501  0.0000
  O2     O2        0.096891395465644    0.805409862185532    0.345688077649873  0.0000
  O2     O2        0.396982846064160    0.169573982665787    0.345226103916301  0.0000
  O2     O2        0.012160512659360    0.995512855516604    0.501536650952365  0.0000
  O2     O2        0.473757905579895    0.986176076154503    0.512699803245005  0.0000
  O2     O2        0.976104941996333    0.988959625554053    0.257166819771654  0.0000
  O3     O3        0.521026050323957    0.982107904204216    0.276103717431564  0.0000
  O2     O2        0.993075567437634    0.994856613932122    0.751370454555399  0.0000
  O2     O2        0.497184373779560    0.950556500851089    0.759178185033768  0.0000
  O3     O3        0.587124361285851    0.212261207444683    0.098827853949589  0.0000
  O2     O2        0.897961219802292    0.782220604416375    0.100861905702057  0.0000
  O2     O2        0.396434597868309    0.156508605085054    0.877882575667862  0.0000
  O2     O2        0.091966736317679    0.789461297570906    0.874368300299587  0.0000
  O2     O2        0.376797282472253    0.812599841910929    0.868296904356717  0.0000
  O2     O2        0.110878835752186    0.132552481272560    0.871219367805769  0.0000
  O3     O3        0.636103146937687    0.858474839099873    0.106292192537449  0.0000
  O2     O2        0.869383846903133    0.124475696516801    0.109867671267312  0.0000
  O3     O3        0.485717835356251    0.938559579449816    0.013139008241891  0.0000
  O2     O2        0.998856630692377    0.006238849553574    0.005960549564283  0.0000
  O2     O2        0.134488896261191    0.478558937853474    0.293351045945663  0.0000
  O2     O2        0.357693814236624    0.493237387192487    0.293344109097509  0.0000
  O1     O1        0.845908665572229    0.440441107211689    0.651167266696174  0.0000
  O3     O3        0.647000524442462    0.492244384871280    0.660704074421928  0.0000
  O2     O2        0.249349952596659    0.247627199807780    0.300236175813781  0.0000
  O2     O2        0.242941330377960    0.724324428576655    0.298973243814901  0.0000
  O3     O3        0.726519342791612    0.198512263584758    0.686635847843168  0.0000
  O1     O1        0.758780861753914    0.751239146753939    0.682495381665251  0.0000
  O2     O2        0.146478201300585    0.230902444258511    0.110899798851291  0.0000
  O2     O2        0.343175524928635    0.728159483943284    0.108596256207884  0.0000
  O3     O3        0.849037075486888    0.215933930316632    0.866936527921830  0.0000
  O3     O3        0.633361699674649    0.752322156957394    0.862191429880731  0.0000
  O3     O3        0.883564561676176    0.671519046050297    0.857739830118913  0.0000
  O2     O2        0.624016287396525    0.292924011617624    0.861853313459201  0.0000
  O2     O2        0.137220311148359    0.715040585161064    0.110497455994781  0.0000
  O2     O2        0.353829127072598    0.245951424755820    0.112103629751340  0.0000
  O2     O2        0.639569251922211    0.523364833024969    0.052234470645661  0.0000
  O2     O2        0.856991416429385    0.457661505769086    0.050690998021233  0.0000
  O2     O2        0.360169387203878    0.483118013460606    0.928361840354328  0.0000
  O2     O2        0.127897554032135    0.465464116026868    0.929326944113444  0.0000
  O2     O2        0.734589576252210    0.247774026918512    0.036081277465865  0.0000
  O2     O2        0.760188056626778    0.716458048969574    0.991271395304654  0.0000
  O2     O2        0.249472107959731    0.247220645313100    0.923378737210102  0.0000
  O2     O2        0.238621395506495    0.700448069193259    0.920518308351828  0.0000
