data_c01008.vasp
_audit_creation_method             Generated by GULP
_audit_author_name                 Salvador R. G. Balestra
_symmetry_space_group_name_H-M     'P 1             '
_symmetry_Int_Tables_number        1

loop_
_symmetry_equiv_pos_site_id
_symmetry_equiv_pos_as_xyz
_cell_length_a                       17.1743
_cell_length_b                        7.6233
_cell_length_c                       10.3097
_cell_angle_alpha                   89.9382
_cell_angle_beta                    89.7284
_cell_angle_gamma                   88.6331

loop_
_atom_site_label
_atom_site_type_symbol
_atom_site_fract_x
_atom_site_fract_y
_atom_site_fract_z
_atom_site_charge
  Ge     Ge        0.556730000000016    0.000000000000000    0.122129999999970  0.0000
  Ge     Ge        0.334505373872681    0.674797130851822    0.273974953823503  0.0000
  Ge     Ge        0.849788137832141    0.652729990635927    0.697999275617378  0.0000
  Ge     Ge        0.646802482328197    0.298216373789304    0.710404978250757  0.0000
  Si     Si        0.042825511049124    0.978806788914738    0.351130192737372  0.0000
  Si     Si        0.449199516561285    0.962808641027346    0.371798845419580  0.0000
  Si     Si        0.951296952313084    0.960318571411381    0.615185573170535  0.0000
  Si     Si        0.544502736314930    0.991667230443825    0.628669665739633  0.0000
  Si     Si        0.937630683816006    0.970599163017680    0.101562235003900  0.0000
  Si     Si        0.441777754802502    0.968190220762588    0.881718806035930  0.0000
  Si     Si        0.053657191234928    0.983779750584928    0.866473448251774  0.0000
  Si     Si        0.156577389579560    0.265257529087907    0.263383938987359  0.0000
  Si     Si        0.828804076946998    0.246795805199460    0.705739641295083  0.0000
  Si     Si        0.666088126381210    0.708098900208591    0.702561938718200  0.0000
  Si     Si        0.152090981161385    0.671418191488593    0.271671916582320  0.0000
  Si     Si        0.337025660368534    0.261883906080372    0.267707257414551  0.0000
  Si     Si        0.646756153838804    0.315879857404169    0.016818576999775  0.0000
  Si     Si        0.850655423003831    0.654381487645930    0.006029247734471  0.0000
  Si     Si        0.340026944892130    0.279021866578869    0.965259862320188  0.0000
  Si     Si        0.154351065527452    0.672083152604815    0.966705975584027  0.0000
  Si     Si        0.333636306121575    0.680718069286710    0.964605484261114  0.0000
  Si     Si        0.159573658071868    0.273003686968493    0.961574907860140  0.0000
  Si     Si        0.671015487207614    0.712726501781862    0.005038799328020  0.0000
  Si     Si        0.825459753453755    0.262534760355350    0.012539922224523  0.0000
  O2     O2        0.103243712917421    0.136944747120297    0.345484245474354  0.0000
  O3     O3        0.400737943734322    0.787545317875582    0.361698962215971  0.0000
  O2     O2        0.877477436937482    0.091643362025941    0.636412573744502  0.0000
  O2     O2        0.616044470037044    0.849641827532958    0.619746649509824  0.0000
  O3     O3        0.917006811392628    0.767794794008847    0.610249634039363  0.0000
  O3     O3        0.580468397479469    0.182394449237745    0.622565867068307  0.0000
  O2     O2        0.089720779029115    0.792610692681956    0.348860217189052  0.0000
  O2     O2        0.389356024961689    0.125578255578301    0.347923806222224  0.0000
  O2     O2        0.994551505997323    0.001503954240506    0.482014681304052  0.0000
  O2     O2        0.482393071721078    0.970330414104104    0.516226600309442  0.0000
  O2     O2        0.982517688301663    0.992389092568252    0.234330292057027  0.0000
  O3     O3        0.522332711795321    0.969964204905991    0.276408172149246  0.0000
  O2     O2        0.013713199804488    0.985171696443429    0.728114515543444  0.0000
  O2     O2        0.501050887035166    0.958469187434781    0.763992728827881  0.0000
  O3     O3        0.588027413652632    0.213387163385231    0.108171601903507  0.0000
  O2     O2        0.906225301438656    0.772748617994086    0.094337301935393  0.0000
  O2     O2        0.395169118367364    0.155482741549328    0.876997278523637  0.0000
  O2     O2        0.098597412700035    0.798006450629426    0.883485603495836  0.0000
  O2     O2        0.381875218853263    0.808091652134981    0.871908495026119  0.0000
  O2     O2        0.113503799221654    0.143359385479042    0.869504627810495  0.0000
  O3     O3        0.634747638035321    0.857043494990501    0.097959567363916  0.0000
  O2     O2        0.866497772648183    0.112199580405701    0.098675314598254  0.0000
  O3     O3        0.485545877717131    0.943962479899439    0.016122229163108  0.0000
  O2     O2        0.991599698769333    0.015323683754487    0.979875719395016  0.0000
  O2     O2        0.133544288704819    0.466923359792457    0.295345572822681  0.0000
  O3     O3        0.358622745703904    0.457222638599892    0.301589167886942  0.0000
  O3     O3        0.866232647185775    0.431749581575431    0.673013269623323  0.0000
  O3     O3        0.629668643892088    0.518709855717063    0.685658040024143  0.0000
  O2     O2        0.246497525751179    0.228857878509468    0.300454054375048  0.0000
  O3     O3        0.238351941166096    0.710405505378459    0.319005289789728  0.0000
  O3     O3        0.740295151139785    0.245418089742186    0.658917904113513  0.0000
  O3     O3        0.754912508260650    0.703599608488976    0.654816423028057  0.0000
  O2     O2        0.145404895908250    0.223627065626103    0.111542784194049  0.0000
  O3     O3        0.343869964185386    0.732802878386800    0.113431941170847  0.0000
  O2     O2        0.827698848727203    0.215377631720287    0.860887242837991  0.0000
  O2     O2        0.664373891284917    0.766312391364505    0.853990059507610  0.0000
  O3     O3        0.866427670202359    0.704480407327420    0.858188419070760  0.0000
  O3     O3        0.633851324131149    0.246069481645442    0.871812983766770  0.0000
  O2     O2        0.145134895605806    0.715545272093399    0.118758522535014  0.0000
  O2     O2        0.353377453221674    0.227018586792521    0.115139762873229  0.0000
  O2     O2        0.629590938382000    0.525021876241625    0.024284565437898  0.0000
  O2     O2        0.868464408633541    0.447866132004850    0.033070120782784  0.0000
  O2     O2        0.363555827021517    0.479970441876148    0.943044043614379  0.0000
  O2     O2        0.130398253773050    0.472868608888256    0.936919379392545  0.0000
  O2     O2        0.736114898695361    0.276411534093869    0.059137020548337  0.0000
  O2     O2        0.761220231678429    0.693655763392198    0.042706609466240  0.0000
  O2     O2        0.250631941577777    0.252479285218006    0.926994225658816  0.0000
  O2     O2        0.243284319341839    0.699808584114429    0.924808962160111  0.0000
