data_c01046.vasp
_audit_creation_method             Generated by GULP
_audit_author_name                 Salvador R. G. Balestra
_symmetry_space_group_name_H-M     'P 1             '
_symmetry_Int_Tables_number        1

loop_
_symmetry_equiv_pos_site_id
_symmetry_equiv_pos_as_xyz
_cell_length_a                       17.0469
_cell_length_b                        7.5992
_cell_length_c                       10.3200
_cell_angle_alpha                   89.4654
_cell_angle_beta                    90.5770
_cell_angle_gamma                   89.9770

loop_
_atom_site_label
_atom_site_type_symbol
_atom_site_fract_x
_atom_site_fract_y
_atom_site_fract_z
_atom_site_charge
  Ge     Ge        0.556730000000016    0.000000000000000    0.122129999999970  0.0000
  Ge     Ge        0.353132775390715    0.671171774303314    0.290994742174307  0.0000
  Ge     Ge        0.334235537029459    0.280197905961826    0.968756916349862  0.0000
  Ge     Ge        0.858722186860016    0.332017285818197    0.029304271964088  0.0000
  Si     Si        0.052335261392893    0.990119258415089    0.371469740064566  0.0000
  Si     Si        0.456492052423480    0.978239759011996    0.382432466485204  0.0000
  Si     Si        0.957162583600312    0.003918245294434    0.633515140299109  0.0000
  Si     Si        0.557178415100767    0.990709395275977    0.636599477870796  0.0000
  Si     Si        0.948170559597129    0.008276507780658    0.123717931587717  0.0000
  Si     Si        0.445403793219155    0.000099538654051    0.879236535683799  0.0000
  Si     Si        0.059999958033884    0.005958182395576    0.887703925137177  0.0000
  Si     Si        0.157031523776860    0.299529270039638    0.277269983492450  0.0000
  Si     Si        0.855030789399925    0.310517986747922    0.722367782797972  0.0000
  Si     Si        0.660485352913768    0.683198226292166    0.710893946585643  0.0000
  Si     Si        0.839879507902392    0.715915782771169    0.716847100669951  0.0000
  Si     Si        0.674092247131795    0.278798965677100    0.721376411177937  0.0000
  Si     Si        0.169007142142186    0.702301332770115    0.290724242912411  0.0000
  Si     Si        0.336372377902877    0.256109856286746    0.275457103672668  0.0000
  Si     Si        0.674369079706364    0.285831607610610    0.023571098334016  0.0000
  Si     Si        0.833919779067718    0.734358312257613    0.020432571923774  0.0000
  Si     Si        0.171950190474550    0.719737868439813    0.987591132661586  0.0000
  Si     Si        0.355023188945318    0.684762564972453    0.986713988828933  0.0000
  Si     Si        0.152009355379433    0.325583664628486    0.973365126499452  0.0000
  Si     Si        0.653683437294730    0.684363457672967    0.011874854218114  0.0000
  O2     O2        0.096731289715825    0.175414369002801    0.352705459157963  0.0000
  O3     O3        0.419942287946327    0.783970192138004    0.384316779810751  0.0000
  O2     O2        0.913217798963617    0.191993355115085    0.637399129214463  0.0000
  O2     O2        0.601269440546275    0.802470940617513    0.624461853368693  0.0000
  O2     O2        0.892596941409750    0.848674773016023    0.633561640985685  0.0000
  O2     O2        0.622189417382583    0.145078312715075    0.637336326646383  0.0000
  O2     O2        0.114742852488888    0.830853370264578    0.373513017344106  0.0000
  O2     O2        0.384132933253136    0.112703613551948    0.359375214270664  0.0000
  O2     O2        0.007273455351251    0.993466337883821    0.505085512302512  0.0000
  O2     O2        0.497324262390183    0.019560933835842    0.519217737589766  0.0000
  O2     O2        0.988948877096166    0.957008026865992    0.258579031992476  0.0000
  O3     O3        0.522899934258145    0.003125522356915    0.276694764071862  0.0000
  O2     O2        0.017155930071753    0.976257908223976    0.752340250165603  0.0000
  O2     O2        0.507865679626302    0.997800903611460    0.766858498752500  0.0000
  O3     O3        0.632145189820053    0.149301257804832    0.115202331918979  0.0000
  O2     O2        0.869251259973026    0.893404273002802    0.103672593108403  0.0000
  O3     O3        0.377337378786492    0.142792201387628    0.858768993782598  0.0000
  O2     O2        0.133883451222681    0.873369051144154    0.900041317117325  0.0000
  O2     O2        0.407858304778528    0.805931088299449    0.893800044000985  0.0000
  O2     O2        0.088828234971339    0.208639711999936    0.895283106692253  0.0000
  O3     O3        0.590718073376319    0.790715676743059    0.090324413851375  0.0000
  O3     O3        0.924132084537600    0.211381490208176    0.122220663778577  0.0000
  O3     O3        0.486214855480916    0.063166186096320    0.012132442313499  0.0000
  O2     O2        0.003958295839134    0.957433645000893    0.005704829740713  0.0000
  O2     O2        0.137877835923198    0.502432810388547    0.308217923639294  0.0000
  O3     O3        0.371854277557073    0.448625471123717    0.297245717994749  0.0000
  O2     O2        0.871340829299328    0.517539207212002    0.697690654075221  0.0000
  O2     O2        0.643014228847935    0.476536224383723    0.691421664036771  0.0000
  O2     O2        0.245794550123942    0.255642577204796    0.322112657231981  0.0000
  O3     O3        0.258208292851053    0.712347283232849    0.338643763733116  0.0000
  O2     O2        0.765218340562344    0.265093057155223    0.682694520056198  0.0000
  O2     O2        0.749502805486228    0.726565382865160    0.668971361723153  0.0000
  O2     O2        0.148960613364844    0.266311551072415    0.123968499552576  0.0000
  O3     O3        0.369303404804749    0.743562709591739    0.133837071043668  0.0000
  O3     O3        0.871813839790152    0.265923778636342    0.871304351782881  0.0000
  O2     O2        0.646978912417680    0.735285135346930    0.859859328717240  0.0000
  O2     O2        0.843553871825647    0.770218242301567    0.866915284998572  0.0000
  O2     O2        0.667474671510327    0.228123604566368    0.872851273709464  0.0000
  O2     O2        0.165681207533325    0.762087194724040    0.139871217355888  0.0000
  O3     O3        0.338990703861497    0.201918069971065    0.126159920674329  0.0000
  O2     O2        0.635417768571393    0.478968435917263    0.034610418910410  0.0000
  O3     O3        0.877048829143117    0.552203627413927    0.053230219636667  0.0000
  O3     O3        0.378377227507764    0.484538247124269    0.965723621668182  0.0000
  O2     O2        0.129922660530384    0.532508466076963    0.958256956839539  0.0000
  O3     O3        0.763402658842873    0.293006393722156    0.070535658935351  0.0000
  O2     O2        0.742578155512285    0.725078257081390    0.057877111351058  0.0000
  O3     O3        0.237666369461217    0.294639651774303    0.919303445145324  0.0000
  O2     O2        0.262929946633893    0.706959387310469    0.950875755735074  0.0000
