data_c01099.vasp
_audit_creation_method             Generated by GULP
_audit_author_name                 Salvador R. G. Balestra
_symmetry_space_group_name_H-M     'P 1             '
_symmetry_Int_Tables_number        1

loop_
_symmetry_equiv_pos_site_id
_symmetry_equiv_pos_as_xyz
_cell_length_a                       16.9627
_cell_length_b                        7.5792
_cell_length_c                       10.3819
_cell_angle_alpha                   88.7184
_cell_angle_beta                    89.9108
_cell_angle_gamma                   90.6508

loop_
_atom_site_label
_atom_site_type_symbol
_atom_site_fract_x
_atom_site_fract_y
_atom_site_fract_z
_atom_site_charge
  Ge     Ge        0.556730000000016    0.000000000000000    0.122129999999970  0.0000
  Ge     Ge        0.848164893277300    0.358266595335238    0.695025204360263  0.0000
  Ge     Ge        0.167294951659526    0.753768509919074    0.968898178781670  0.0000
  Ge     Ge        0.647258390585763    0.672672541797500    0.025976027019326  0.0000
  Si     Si        0.046392616328272    0.020790587533364    0.360772892032435  0.0000
  Si     Si        0.447855539559809    0.018059371601457    0.369811617564236  0.0000
  Si     Si        0.948726089951029    0.051266818080818    0.615920308744822  0.0000
  Si     Si        0.543399712215248    0.026328508218082    0.630176852096189  0.0000
  Si     Si        0.946728390003964    0.015691816482005    0.104168942977334  0.0000
  Si     Si        0.443857938381002    0.033079405729561    0.884159723153240  0.0000
  Si     Si        0.056484249099368    0.036452014260196    0.865040242402686  0.0000
  Si     Si        0.149249138334050    0.333235413084261    0.273312177076570  0.0000
  Si     Si        0.344704901564806    0.708001478212045    0.276928548980255  0.0000
  Si     Si        0.647178345485400    0.718439630974175    0.722091517318362  0.0000
  Si     Si        0.827816281893017    0.765926295828538    0.716612076452637  0.0000
  Si     Si        0.663530186103742    0.312056759288642    0.704761247934994  0.0000
  Si     Si        0.164255861681544    0.741998161096888    0.274806410186031  0.0000
  Si     Si        0.330456163752926    0.303649862102190    0.276899341644358  0.0000
  Si     Si        0.673780306997756    0.272162039062024    0.004706143304044  0.0000
  Si     Si        0.831381041010975    0.728898370629051    0.018965158899992  0.0000
  Si     Si        0.330357616719801    0.310707293851360    0.976624939126187  0.0000
  Si     Si        0.351069619484056    0.707664723761131    0.974458537063784  0.0000
  Si     Si        0.147281253588940    0.348465318891279    0.974884486047421  0.0000
  Si     Si        0.856151777100151    0.335634102165697    0.999052201345015  0.0000
  O2     O2        0.089622387697520    0.212606356872553    0.358573068986598  0.0000
  O2     O2        0.407505722855134    0.825492014968159    0.353146200847457  0.0000
  O3     O3        0.913770671557903    0.245156712452710    0.601075568459533  0.0000
  O2     O2        0.587188528763600    0.838954583349130    0.639745301314532  0.0000
  O2     O2        0.873200473565451    0.923527698160196    0.641691407736424  0.0000
  O2     O2        0.607458023952100    0.185774838250800    0.621206656284991  0.0000
  O2     O2        0.111717178558262    0.867480919315105    0.362325879352867  0.0000
  O2     O2        0.380653669021748    0.166606169185867    0.361023326188524  0.0000
  O2     O2        0.994759900053214    0.997582015144197    0.488680120457015  0.0000
  O2     O2        0.488445836644121    0.026785589891160    0.506878135031035  0.0000
  O2     O2        0.989095218929612    0.000002307086103    0.240246768633435  0.0000
  O3     O3        0.515587992321853    0.053668590888303    0.265819149953388  0.0000
  O2     O2        0.008558847616769    0.033905161025901    0.734441721784850  0.0000
  O2     O2        0.485883878214255    0.058866505677007    0.748734400249223  0.0000
  O3     O3        0.645623189063308    0.110745603482735    0.092574567014844  0.0000
  O2     O2        0.877194801067676    0.869993661632351    0.104788438087355  0.0000
  O2     O2        0.369087717138501    0.163999073334685    0.888892382194015  0.0000
  O3     O3        0.127368854573535    0.900606245539273    0.860843240615372  0.0000
  O2     O2        0.416458997761992    0.828157606720709    0.901761953261079  0.0000
  O2     O2        0.091008009944057    0.232626953807936    0.885706954535665  0.0000
  O1     O1        0.580731913491995    0.782070484013159    0.117917049219457  0.0000
  O2     O2        0.912639097364548    0.212514065974954    0.086036329116224  0.0000
  O3     O3        0.499805770720831    0.085381937595908    0.999319248489711  0.0000
  O2     O2        0.005556996626342    0.968792369884612    0.988541846096103  0.0000
  O2     O2        0.133279980184470    0.540140550902866    0.292611016323808  0.0000
  O2     O2        0.361503393876907    0.501620725587460    0.304315577485782  0.0000
  O3     O3        0.865663721996486    0.581815704587965    0.679635864409102  0.0000
  O2     O2        0.630320673808821    0.511477501438379    0.698289292181924  0.0000
  O2     O2        0.238488686850380    0.287618318227231    0.314952233630412  0.0000
  O2     O2        0.255696702863744    0.753234735795274    0.318809666021810  0.0000
  O3     O3        0.751929335876240    0.313171641835942    0.651612568994975  0.0000
  O2     O2        0.736075323470594    0.766440363755069    0.675451063829450  0.0000
  O2     O2        0.135343324468294    0.287388784171090    0.124076901464048  0.0000
  O2     O2        0.356356644248355    0.752625778502836    0.125804089168262  0.0000
  O3     O3        0.869057682468364    0.289775388827138    0.851228120847251  0.0000
  O3     O3        0.635251390687365    0.758028426506346    0.870912240759850  0.0000
  O2     O2        0.830714899262817    0.794345994944587    0.869858119959163  0.0000
  O2     O2        0.664875229135291    0.238124056639867    0.851858169568459  0.0000
  O3     O3        0.158805292876541    0.809748712399172    0.128228221382948  0.0000
  O2     O2        0.339876985526957    0.257173410271004    0.127027420395686  0.0000
  O3     O3        0.627343735257415    0.450085558473478    0.037013795859316  0.0000
  O2     O2        0.876289317067618    0.540524111197653    0.026453167674664  0.0000
  O2     O2        0.371296778486845    0.502451652975093    0.951799629509598  0.0000
  O3     O3        0.124271889473645    0.548321804921806    0.951931372425199  0.0000
  O2     O2        0.765333327171845    0.304851025915351    0.036251315715043  0.0000
  O3     O3        0.743793519162647    0.711256362704701    0.072338579125335  0.0000
  O2     O2        0.238813889111654    0.321315643685588    0.938723852053139  0.0000
  O3     O3        0.264992479923367    0.748128117603675    0.924228073400545  0.0000
