data_c01056.vasp
_audit_creation_method             Generated by GULP
_audit_author_name                 Salvador R. G. Balestra
_symmetry_space_group_name_H-M     'P 1             '
_symmetry_Int_Tables_number        1

loop_
_symmetry_equiv_pos_site_id
_symmetry_equiv_pos_as_xyz
_cell_length_a                       16.9616
_cell_length_b                        7.6201
_cell_length_c                       10.3307
_cell_angle_alpha                   89.6373
_cell_angle_beta                    89.6732
_cell_angle_gamma                   89.3205

loop_
_atom_site_label
_atom_site_type_symbol
_atom_site_fract_x
_atom_site_fract_y
_atom_site_fract_z
_atom_site_charge
  Ge     Ge        0.556730000000016    0.000000000000000    0.122129999999970  0.0000
  Ge     Ge        0.339032959028454    0.692664378746636    0.294213484415945  0.0000
  Ge     Ge        0.678919171472310    0.718747836312546    0.031330603900957  0.0000
  Ge     Ge        0.831479619364920    0.250336265042090    0.031070010521910  0.0000
  Si     Si        0.049868834927426    0.968323857300744    0.376146585727740  0.0000
  Si     Si        0.453042060026533    0.978083558820326    0.382032408989668  0.0000
  Si     Si        0.953492633968074    0.970175507144801    0.638624981051852  0.0000
  Si     Si        0.554744628651820    0.998472428220536    0.633607770535906  0.0000
  Si     Si        0.945980034629291    0.964950063430354    0.125493659880636  0.0000
  Si     Si        0.447942645875725    0.976456551824687    0.878285784677895  0.0000
  Si     Si        0.058206356094931    0.987525499960784    0.889707100418436  0.0000
  Si     Si        0.164733888626904    0.258396252639460    0.283786291723460  0.0000
  Si     Si        0.835412155005879    0.257632208739942    0.723622537396381  0.0000
  Si     Si        0.672599014780757    0.709038268631976    0.725131051721514  0.0000
  Si     Si        0.851803306683258    0.659796327333716    0.724454793615773  0.0000
  Si     Si        0.655467614222941    0.304780609652906    0.731561555141291  0.0000
  Si     Si        0.153585924232803    0.660999517298681    0.291519546296287  0.0000
  Si     Si        0.347796377003750    0.281633148151236    0.289015635686417  0.0000
  Si     Si        0.647446981356855    0.323024052596150    0.033560270696713  0.0000
  Si     Si        0.861288986518484    0.644403641636768    0.028316776449239  0.0000
  Si     Si        0.351709239029708    0.290976217903207    0.988242119660705  0.0000
  Si     Si        0.155515545459092    0.669540444647279    0.988364925565570  0.0000
  Si     Si        0.337940900424287    0.695236226502635    0.986552554745118  0.0000
  Si     Si        0.169159970897465    0.270240696105448    0.982161469316946  0.0000
  O2     O2        0.115010362686919    0.120627824762291    0.367044708506922  0.0000
  O3     O3        0.392887863344770    0.819069486966678    0.397585940160421  0.0000
  O2     O2        0.886139577977211    0.121354254656479    0.637905602051013  0.0000
  O2     O2        0.619693959772576    0.842756480944591    0.640294051348608  0.0000
  O2     O2        0.913644711991943    0.778828167273675    0.646032299379252  0.0000
  O2     O2        0.594400842783408    0.188103136830812    0.652042943842138  0.0000
  O2     O2        0.092032766109673    0.777971211935202    0.373177672805179  0.0000
  O2     O2        0.402265371318294    0.157993771588976    0.377124663013336  0.0000
  O2     O2        0.002537241950718    0.987596107330794    0.507998030574754  0.0000
  O2     O2        0.518080831545340    0.992921740199190    0.491809565471754  0.0000
  O2     O2        0.989068132135877    0.988795669675604    0.259896609465690  0.0000
  O3     O3        0.497510688644873    0.944347459207998    0.247775673420985  0.0000
  O2     O2        0.013929019524377    0.997094848529857    0.754958575167496  0.0000
  O2     O2        0.483420438235125    0.971825163334167    0.734406735337939  0.0000
  O3     O3        0.582843626895650    0.217674495257332    0.114757117467388  0.0000
  O2     O2        0.924692551093943    0.761609522150465    0.103009603854866  0.0000
  O2     O2        0.410732799233466    0.170549197570059    0.904678832797148  0.0000
  O2     O2        0.097329251756370    0.794549188521310    0.906977997780809  0.0000
  O2     O2        0.381476231474094    0.826901732661522    0.888869968976954  0.0000
  O2     O2        0.125315139811045    0.135771412886469    0.889403949148537  0.0000
  O1     O1        0.642104715839490    0.877459902162361    0.127921010877087  0.0000
  O3     O3        0.867949097201476    0.083697741996993    0.126400361792891  0.0000
  O3     O3        0.514939029972864    0.930034837261955    0.979474284877448  0.0000
  O2     O2        0.998774702131512    0.035625248099525    0.006066867334505  0.0000
  O2     O2        0.135402724063477    0.455732233913386    0.315229182932848  0.0000
  O3     O3        0.369377472041083    0.478634418570953    0.317398468228633  0.0000
  O2     O2        0.869887513560683    0.453330878747147    0.702540763528759  0.0000
  O2     O2        0.637958932705440    0.512350472269836    0.711395641214351  0.0000
  O2     O2        0.256548248023316    0.240592973270326    0.320882200111194  0.0000
  O3     O3        0.240698577166263    0.706512859674430    0.335180005819421  0.0000
  O2     O2        0.743601848731514    0.258346119045699    0.681546476938573  0.0000
  O2     O2        0.763571602986920    0.706794992444876    0.675763582910897  0.0000
  O2     O2        0.155145181142586    0.217486395852961    0.131866658114482  0.0000
  O3     O3        0.350868800008443    0.753051378227401    0.133686273620366  0.0000
  O3     O3        0.838795735864533    0.193098395580986    0.870547828909340  0.0000
  O3     O3        0.672598675640169    0.778046643913101    0.870035774002219  0.0000
  O2     O2        0.859495733291479    0.700291822087743    0.876453047972427  0.0000
  O2     O2        0.646491695409634    0.258595480885445    0.883239778904991  0.0000
  O2     O2        0.143333408707311    0.708767965730502    0.139914917061517  0.0000
  O2     O2        0.365459305789622    0.237972313793820    0.137959375717032  0.0000
  O3     O3        0.626705205517356    0.525352572314145    0.047192049186722  0.0000
  O3     O3        0.883758423504327    0.442996644963841    0.048134163411613  0.0000
  O2     O2        0.370877641030152    0.496138054533785    0.967360508750081  0.0000
  O2     O2        0.136334575452445    0.467333283710094    0.956671735846572  0.0000
  O3     O3        0.735828813739294    0.282615121627797    0.081534998771010  0.0000
  O3     O3        0.773995570309451    0.679224188456804    0.081274871614372  0.0000
  O2     O2        0.261707471612668    0.257107323746438    0.948635646156222  0.0000
  O2     O2        0.245806290343247    0.705993160724599    0.951168476216034  0.0000
