data_c01061.vasp
_audit_creation_method             Generated by GULP
_audit_author_name                 Salvador R. G. Balestra
_symmetry_space_group_name_H-M     'P 1             '
_symmetry_Int_Tables_number        1

loop_
_symmetry_equiv_pos_site_id
_symmetry_equiv_pos_as_xyz
_cell_length_a                       17.0621
_cell_length_b                        7.6202
_cell_length_c                       10.3192
_cell_angle_alpha                   89.5988
_cell_angle_beta                    90.1729
_cell_angle_gamma                   90.6839

loop_
_atom_site_label
_atom_site_type_symbol
_atom_site_fract_x
_atom_site_fract_y
_atom_site_fract_z
_atom_site_charge
  Ge     Ge        0.556730000000016    0.000000000000000    0.122129999999970  0.0000
  Ge     Ge        0.853932136222209    0.336178017781585    0.706570698690444  0.0000
  Ge     Ge        0.651187488290567    0.695971649505715    0.710504506139685  0.0000
  Ge     Ge        0.332272204124228    0.301466393847609    0.965685404468688  0.0000
  Si     Si        0.049711407887104    0.012608573166689    0.358777972782498  0.0000
  Si     Si        0.448937254493530    0.012628607505073    0.373326769265317  0.0000
  Si     Si        0.956192408809258    0.028653779446476    0.620961235717899  0.0000
  Si     Si        0.548683739848978    0.002969878646652    0.626839855587441  0.0000
  Si     Si        0.941563405973060    0.014667374720856    0.110228847859229  0.0000
  Si     Si        0.444807605015991    0.019322100065993    0.878398014536422  0.0000
  Si     Si        0.055794740187670    0.019432652291416    0.876150950116062  0.0000
  Si     Si        0.154624265808295    0.324600512540770    0.274730670035890  0.0000
  Si     Si        0.345962550066166    0.705842585504437    0.274976059765711  0.0000
  Si     Si        0.834734669455359    0.742887532712299    0.712503324306128  0.0000
  Si     Si        0.668593748219206    0.286408262763250    0.707297441870627  0.0000
  Si     Si        0.165173228259868    0.726873868591080    0.275317687234838  0.0000
  Si     Si        0.333910148906548    0.298412053300797    0.273778212091359  0.0000
  Si     Si        0.672313707999403    0.283933710013723    0.009210286970624  0.0000
  Si     Si        0.829265303454657    0.727763395707671    0.017998545639430  0.0000
  Si     Si        0.166315861723747    0.733357451860171    0.973452295141866  0.0000
  Si     Si        0.348823774039569    0.705101728716281    0.974648496271846  0.0000
  Si     Si        0.149732140362220    0.337525387685439    0.969495548835638  0.0000
  Si     Si        0.648999618011535    0.682921715511469    0.016400318019753  0.0000
  Si     Si        0.853455842818029    0.333243527179603    0.013386763885513  0.0000
  O2     O2        0.094062853674699    0.201012116278320    0.352641217030171  0.0000
  O2     O2        0.404323916876312    0.824233793712839    0.360508945874805  0.0000
  O3     O3        0.920261666234490    0.220762671110486    0.616853476178421  0.0000
  O3     O3        0.587350471596646    0.814413882898534    0.615734677376127  0.0000
  O2     O2        0.883261259001715    0.894976781376333    0.639802127223774  0.0000
  O2     O2        0.618792596298850    0.147809805471595    0.622481910204362  0.0000
  O2     O2        0.113969700189908    0.859252768263913    0.358276804544004  0.0000
  O2     O2        0.387444766262162    0.170089188849310    0.358521688483040  0.0000
  O2     O2        0.001088103462021    0.991915198462366    0.489015520285641  0.0000
  O2     O2        0.484900339519955    0.031292327994098    0.515822661476461  0.0000
  O2     O2        0.989515985766530    0.990562138863046    0.241151788405046  0.0000
  O3     O3        0.520420340020575    0.025573621442446    0.275069406608563  0.0000
  O2     O2        0.018382235719636    0.002111482929094    0.735873293001146  0.0000
  O2     O2        0.505704907582208    0.021729218274367    0.763433941840016  0.0000
  O3     O3        0.635157853534786    0.143122032520261    0.103876080090973  0.0000
  O2     O2        0.870724423505469    0.872804231195297    0.107805531489305  0.0000
  O3     O3        0.378591385249360    0.164109542059130    0.861320672134601  0.0000
  O2     O2        0.126691430534392    0.881653321498601    0.885715405481430  0.0000
  O2     O2        0.403751374463149    0.827517499148678    0.886527976678753  0.0000
  O2     O2        0.086809243597605    0.218618002885576    0.893669674031333  0.0000
  O3     O3        0.589052235752536    0.786898745578884    0.104884568129137  0.0000
  O2     O2        0.908628672914087    0.212709357285510    0.104220130757284  0.0000
  O3     O3        0.487474877266082    0.065646835569966    0.012287413875663  0.0000
  O2     O2        0.994374833651643    0.969242690437328    0.987119100696226  0.0000
  O2     O2        0.136089565470958    0.527798717491331    0.303602254820721  0.0000
  O2     O2        0.363235761970796    0.499537546723591    0.293926176887914  0.0000
  O3     O3        0.872701753063860    0.556465943531238    0.684286310683236  0.0000
  O3     O3        0.631779488526296    0.476576944762178    0.688564795450394  0.0000
  O2     O2        0.243292745459265    0.281638985494990    0.318576653136865  0.0000
  O2     O2        0.256535756193371    0.746082551406116    0.314009175728506  0.0000
  O3     O3        0.758293270585930    0.290052325872067    0.662348918519927  0.0000
  O3     O3        0.746023436125467    0.742766492046832    0.662857649682435  0.0000
  O2     O2        0.146270313842126    0.288768878105818    0.121868315316836  0.0000
  O2     O2        0.361772096367496    0.757877084785099    0.125246542003707  0.0000
  O3     O3        0.870100393834708    0.280200782893720    0.866716682217546  0.0000
  O3     O3        0.637257857532816    0.751939436894460    0.870413183865148  0.0000
  O2     O2        0.833252234804563    0.779512734425282    0.866844505878852  0.0000
  O2     O2        0.665503323361206    0.227930160011546    0.858805158517546  0.0000
  O2     O2        0.155591740710356    0.777730270329031    0.124504613659987  0.0000
  O3     O3        0.340225907936936    0.239802005433340    0.126103901671185  0.0000
  O2     O2        0.631649427531494    0.474141087461321    0.024650335110063  0.0000
  O2     O2        0.871359839148144    0.539505045163070    0.038402484891110  0.0000
  O3     O3        0.373063395156624    0.508591533706084    0.950012349443093  0.0000
  O2     O2        0.128440490237284    0.541748861462554    0.945417914761697  0.0000
  O2     O2        0.763199199709941    0.298178654417273    0.047819197621803  0.0000
  O2     O2        0.738821158850151    0.718855426458944    0.061011811618940  0.0000
  O3     O3        0.235654557089813    0.301693394094128    0.918190449001355  0.0000
  O2     O2        0.257820798237619    0.731068164775536    0.938033217963035  0.0000
