data_c01069.vasp
_audit_creation_method             Generated by GULP
_audit_author_name                 Salvador R. G. Balestra
_symmetry_space_group_name_H-M     'P 1             '
_symmetry_Int_Tables_number        1

loop_
_symmetry_equiv_pos_site_id
_symmetry_equiv_pos_as_xyz
_cell_length_a                       17.0778
_cell_length_b                        7.6197
_cell_length_c                       10.2754
_cell_angle_alpha                   89.5794
_cell_angle_beta                    91.0746
_cell_angle_gamma                   90.4116

loop_
_atom_site_label
_atom_site_type_symbol
_atom_site_fract_x
_atom_site_fract_y
_atom_site_fract_z
_atom_site_charge
  Ge     Ge        0.556730000000016    0.000000000000000    0.122129999999970  0.0000
  Ge     Ge        0.854081597982908    0.334434626581737    0.711090044782081  0.0000
  Ge     Ge        0.834690817397874    0.751577472906111    0.716280900476963  0.0000
  Ge     Ge        0.329946126468355    0.300710339158036    0.963892064078173  0.0000
  Si     Si        0.054281754991817    0.013999768612158    0.371976787043852  0.0000
  Si     Si        0.452214247278687    0.006429565173828    0.374361440233943  0.0000
  Si     Si        0.955702022421823    0.030791407415540    0.624952432765440  0.0000
  Si     Si        0.549692409708240    0.999807514535354    0.634968115895901  0.0000
  Si     Si        0.940990016837906    0.016475110617831    0.129484902141313  0.0000
  Si     Si        0.441985905512088    0.018478967900203    0.879535464583801  0.0000
  Si     Si        0.050080537854922    0.015058978344458    0.890260306021467  0.0000
  Si     Si        0.158003191833894    0.321446126402950    0.276708954109213  0.0000
  Si     Si        0.346906061349309    0.703003871491448    0.275003330455224  0.0000
  Si     Si        0.651985327086065    0.691095031140621    0.711970686300672  0.0000
  Si     Si        0.668820963679513    0.288045907098587    0.710022154961492  0.0000
  Si     Si        0.166782541206917    0.723737956696382    0.278210715568192  0.0000
  Si     Si        0.337013245328001    0.295532225137520    0.273339635305110  0.0000
  Si     Si        0.672476662367558    0.284953646673606    0.014182820846776  0.0000
  Si     Si        0.830403356913333    0.733861187627794    0.025085705149904  0.0000
  Si     Si        0.163932631336972    0.729289811204346    0.974616859369720  0.0000
  Si     Si        0.345943315157514    0.704292351097391    0.972827058357691  0.0000
  Si     Si        0.147489197347533    0.333206073185365    0.970230437996422  0.0000
  Si     Si        0.650763276455693    0.681315235177616    0.016648258198790  0.0000
  Si     Si        0.853057935088429    0.332569035918220    0.018365359196477  0.0000
  O2     O2        0.099607894827582    0.198709808560186    0.356990784847984  0.0000
  O2     O2        0.406480370999146    0.820700190931428    0.359377259722754  0.0000
  O3     O3        0.921285302901399    0.224458031027222    0.619627298975883  0.0000
  O2     O2        0.589578183386909    0.808558436902627    0.630892552566398  0.0000
  O3     O3        0.881210048051011    0.901739327113744    0.619256710884994  0.0000
  O2     O2        0.615951287158816    0.152049434878506    0.626785109670157  0.0000
  O2     O2        0.115013104278544    0.854507905647718    0.361054999865492  0.0000
  O2     O2        0.392301216088294    0.167731420167383    0.357657782988524  0.0000
  O2     O2        0.018263191591348    0.001701805597509    0.513866355462325  0.0000
  O2     O2        0.487357051358202    0.017803076990465    0.519010888364199  0.0000
  O2     O2        0.983180901781098    0.999644835991831    0.268836572089336  0.0000
  O3     O3        0.523794879353935    0.017572689020165    0.277636568528083  0.0000
  O2     O2        0.998176599907373    0.986124020422926    0.762638928449062  0.0000
  O2     O2        0.504670679872550    0.022240565128559    0.768260232636243  0.0000
  O3     O3        0.635127476441113    0.141385809802347    0.105455923993098  0.0000
  O2     O2        0.872326405242144    0.869827019599080    0.123992084079724  0.0000
  O3     O3        0.376048741802186    0.163889386680687    0.859143426011690  0.0000
  O2     O2        0.121294709925757    0.876895828336837    0.888327653013286  0.0000
  O2     O2        0.400018027842469    0.828087036465230    0.885669564510390  0.0000
  O2     O2        0.083368399741560    0.214272669218072    0.894729206403295  0.0000
  O3     O3        0.588354160713916    0.788139901674987    0.095718577401433  0.0000
  O2     O2        0.908065707421065    0.214357067874168    0.113504344392758  0.0000
  O3     O3        0.484170669876382    0.064833259307274    0.015717252463217  0.0000
  O2     O2        0.000928744902838    0.970303013525612    0.017087570510355  0.0000
  O2     O2        0.138890644341122    0.524306938083245    0.306094261263594  0.0000
  O2     O2        0.365505949006212    0.496973641306407    0.293189691400570  0.0000
  O1     O1        0.874056419360729    0.550247277339918    0.690707209606404  0.0000
  O2     O2        0.635936948283030    0.484836066174495    0.686763797200143  0.0000
  O2     O2        0.247170763234831    0.278347377364610    0.319541976999513  0.0000
  O2     O2        0.258340942987317    0.743407304697981    0.317590706780818  0.0000
  O3     O3        0.758158837492236    0.281563366192890    0.667177820314207  0.0000
  O3     O3        0.737697721784785    0.741191148074092    0.666266904776372  0.0000
  O2     O2        0.146730997487627    0.284660574606576    0.123494545969836  0.0000
  O2     O2        0.359261239260674    0.755676848490823    0.124348585931280  0.0000
  O3     O3        0.868857271307395    0.274136668415885    0.872593415189910  0.0000
  O2     O2        0.643807849547810    0.734671432068626    0.864648511837570  0.0000
  O3     O3        0.838138877512569    0.805545763633350    0.879276383915179  0.0000
  O2     O2        0.664193555750430    0.233746097087435    0.862193791915737  0.0000
  O2     O2        0.156411480219341    0.773490501731573    0.126689691122824  0.0000
  O3     O3        0.340624632923396    0.238137363063265    0.124700051179729  0.0000
  O2     O2        0.632596823061888    0.474589031167806    0.035289657777962  0.0000
  O2     O2        0.870433305167944    0.540819110519027    0.035435052494887  0.0000
  O3     O3        0.369926055432402    0.507699167192105    0.947303450855259  0.0000
  O2     O2        0.125912386222107    0.537740033402059    0.946945046940460  0.0000
  O2     O2        0.763478299866394    0.297028175936927    0.054018125905023  0.0000
  O2     O2        0.739613634634082    0.722795874971317    0.064931841637192  0.0000
  O3     O3        0.232686702322542    0.297780941105586    0.917424588740583  0.0000
  O2     O2        0.254482980746602    0.728985091145929    0.935399830255185  0.0000
