data_c01018.vasp
_audit_creation_method             Generated by GULP
_audit_author_name                 Salvador R. G. Balestra
_symmetry_space_group_name_H-M     'P 1             '
_symmetry_Int_Tables_number        1

loop_
_symmetry_equiv_pos_site_id
_symmetry_equiv_pos_as_xyz
_cell_length_a                       17.1466
_cell_length_b                        7.6111
_cell_length_c                       10.3229
_cell_angle_alpha                   88.9128
_cell_angle_beta                    90.1351
_cell_angle_gamma                   88.9132

loop_
_atom_site_label
_atom_site_type_symbol
_atom_site_fract_x
_atom_site_fract_y
_atom_site_fract_z
_atom_site_charge
  Ge     Ge        0.556730000000016    0.000000000000000    0.122129999999970  0.0000
  Ge     Ge        0.332561628647435    0.697391223530424    0.272277462916886  0.0000
  Ge     Ge        0.649102746220509    0.324273615249253    0.702957545522331  0.0000
  Ge     Ge        0.854365996305270    0.653303672403795    0.013103381643485  0.0000
  Si     Si        0.043063833208395    0.991094140979874    0.350931581117575  0.0000
  Si     Si        0.449198278020026    0.981350090020502    0.373979109320758  0.0000
  Si     Si        0.948909412572297    0.991611743289307    0.614623596179400  0.0000
  Si     Si        0.546340567528771    0.017946391596296    0.629709884142007  0.0000
  Si     Si        0.942245794063837    0.973608319222253    0.101300462244499  0.0000
  Si     Si        0.442013438026194    0.988751838793670    0.880937657545847  0.0000
  Si     Si        0.054989324595916    0.998769477391905    0.864304378843535  0.0000
  Si     Si        0.158227314731680    0.276696791172538    0.263554446517780  0.0000
  Si     Si        0.830706699449884    0.282985919126441    0.696454305079953  0.0000
  Si     Si        0.667873594461770    0.734876993975678    0.714512400541039  0.0000
  Si     Si        0.847708923490481    0.685552428866491    0.706286341587032  0.0000
  Si     Si        0.149912472156622    0.683676426004151    0.266019623855423  0.0000
  Si     Si        0.339026655822027    0.283456244095439    0.270762067290894  0.0000
  Si     Si        0.648541044916943    0.315797356222111    0.008581470259642  0.0000
  Si     Si        0.342612022781409    0.299892116425637    0.969398010337855  0.0000
  Si     Si        0.153327308910338    0.683632750138381    0.961942925786485  0.0000
  Si     Si        0.333014765381263    0.702287206652878    0.963753304224293  0.0000
  Si     Si        0.161869645441406    0.284414127844720    0.962053316781478  0.0000
  Si     Si        0.671743582659226    0.712943867169364    0.016002005309108  0.0000
  Si     Si        0.827622415452482    0.255773176822022    0.002103327121482  0.0000
  O2     O2        0.106274039591860    0.145346870493083    0.347960581300840  0.0000
  O3     O3        0.395729280643576    0.812830500541680    0.364072962133076  0.0000
  O2     O2        0.885835221509479    0.151015505935388    0.617338353581556  0.0000
  O2     O2        0.620956630300143    0.883729095232113    0.632242352590187  0.0000
  O2     O2        0.904843390468284    0.806468421806469    0.620768747497284  0.0000
  O3     O3        0.580906980954229    0.210825821568381    0.616024315181389  0.0000
  O2     O2        0.086456431416664    0.801767705567654    0.340549792858533  0.0000
  O2     O2        0.392997295212389    0.152194418278696    0.354859038392160  0.0000
  O2     O2        0.996528463748921    0.000769636129411    0.483041658923431  0.0000
  O2     O2        0.486826944999162    0.980789056638203    0.515695298702219  0.0000
  O2     O2        0.981512256654256    0.022918396824335    0.235597715989034  0.0000
  O3     O3        0.520320274694689    0.981561492349063    0.275446844925568  0.0000
  O2     O2        0.010510500298656    0.012110464219753    0.729613881040812  0.0000
  O2     O2        0.499846406682585    0.987092813025140    0.762047896791195  0.0000
  O3     O3        0.590630729254658    0.210305091647214    0.099888446216353  0.0000
  O3     O3        0.920461313898558    0.770475807487419    0.101504586870502  0.0000
  O2     O2        0.398819057824286    0.179746532024238    0.883079590893931  0.0000
  O2     O2        0.097370896502211    0.808278824652695    0.875190161356770  0.0000
  O2     O2        0.379154268457703    0.833323233453872    0.868731839058054  0.0000
  O2     O2        0.118135672924155    0.152950821330899    0.868669437163211  0.0000
  O3     O3        0.631836756157395    0.848067192160524    0.110507813812380  0.0000
  O2     O2        0.862606837771512    0.088005928654599    0.080478094800328  0.0000
  O3     O3        0.486692038796198    0.945749955003517    0.012981047810489  0.0000
  O2     O2        0.997251950693538    0.028378258333819    0.982821179061558  0.0000
  O2     O2        0.132926534213989    0.477642663181367    0.291229512243266  0.0000
  O3     O3        0.359047849622626    0.480565376232308    0.300603217591829  0.0000
  O2     O2        0.863828642386125    0.479881964523039    0.678965606518337  0.0000
  O3     O3        0.631281096358410    0.547290987358561    0.688843857548918  0.0000
  O2     O2        0.248515160094570    0.246448438248674    0.302739902007289  0.0000
  O3     O3        0.235813982394032    0.727019659624768    0.314239120302741  0.0000
  O3     O3        0.742417512170463    0.279205068773595    0.647321336578140  0.0000
  O2     O2        0.758012238971977    0.732988820996602    0.669508527609822  0.0000
  O2     O2        0.147942391383800    0.232969175306141    0.112255040209523  0.0000
  O3     O3        0.342463804521387    0.757552529460642    0.111640134503121  0.0000
  O2     O2        0.829702130576722    0.226290752002810    0.847818650863084  0.0000
  O2     O2        0.666214948593447    0.781904570902690    0.866691549535870  0.0000
  O3     O3        0.865120674313023    0.724350465461555    0.854623359176395  0.0000
  O3     O3        0.636463769138105    0.256281460657894    0.861894547138353  0.0000
  O2     O2        0.142476133870515    0.728424116400469    0.112760181992956  0.0000
  O2     O2        0.355733846600712    0.245136396676469    0.119501888232494  0.0000
  O2     O2        0.630339921275287    0.523149542997187    0.022560843191614  0.0000
  O3     O3        0.874168151195226    0.431132266685749    0.032143556715428  0.0000
  O2     O2        0.365135748556731    0.502644379484814    0.947093042626707  0.0000
  O2     O2        0.130238541044654    0.483043386548079    0.935438117621080  0.0000
  O2     O2        0.738579055050675    0.276721871206224    0.048166870251060  0.0000
  O3     O3        0.760273589651796    0.691127886419049    0.061581515913147  0.0000
  O2     O2        0.253315544796644    0.270822025635501    0.929558759984936  0.0000
  O2     O2        0.242478602032860    0.713791182564423    0.922549825097507  0.0000
