data_c01140.vasp
_audit_creation_method             Generated by GULP
_audit_author_name                 Salvador R. G. Balestra
_symmetry_space_group_name_H-M     'P 1             '
_symmetry_Int_Tables_number        1

loop_
_symmetry_equiv_pos_site_id
_symmetry_equiv_pos_as_xyz
_cell_length_a                       16.8845
_cell_length_b                        7.6160
_cell_length_c                       10.3889
_cell_angle_alpha                   89.9556
_cell_angle_beta                    90.3181
_cell_angle_gamma                   90.4205

loop_
_atom_site_label
_atom_site_type_symbol
_atom_site_fract_x
_atom_site_fract_y
_atom_site_fract_z
_atom_site_charge
  Ge     Ge        0.556730000000016    0.000000000000000    0.122129999999970  0.0000
  Ge     Ge        0.673244665832984    0.281294761721071    0.007737218827700  0.0000
  Ge     Ge        0.828115753545979    0.745873441940205    0.004691442916009  0.0000
  Ge     Ge        0.162212448598036    0.735187247036772    0.962654132770844  0.0000
  Si     Si        0.044732996543424    0.025244678385553    0.356821010010154  0.0000
  Si     Si        0.445428807297619    0.012951460825838    0.369252854446346  0.0000
  Si     Si        0.942192700430101    0.035293943426999    0.611005528142424  0.0000
  Si     Si        0.542158401000644    0.011216389165200    0.628512862105125  0.0000
  Si     Si        0.944051514729929    0.028810825733868    0.099840196244914  0.0000
  Si     Si        0.443026881153416    0.025570927212501    0.883825467371365  0.0000
  Si     Si        0.050487142794448    0.015854789420584    0.861201146226207  0.0000
  Si     Si        0.148647732216755    0.329390283757219    0.268089901534552  0.0000
  Si     Si        0.340697658810578    0.706196356970661    0.272536357418301  0.0000
  Si     Si        0.842435823110032    0.344630748486507    0.696571382196884  0.0000
  Si     Si        0.645188271803881    0.700966375529629    0.711750632739104  0.0000
  Si     Si        0.826064115004313    0.746899238138386    0.698958698874398  0.0000
  Si     Si        0.661662637290354    0.296600818834560    0.703825333772259  0.0000
  Si     Si        0.158961054982376    0.736211881501073    0.268183630361929  0.0000
  Si     Si        0.331137497833649    0.303998939788264    0.270936883600635  0.0000
  Si     Si        0.329253159872104    0.306318311795154    0.971015197010014  0.0000
  Si     Si        0.347778836938967    0.703130718153509    0.970577607322204  0.0000
  Si     Si        0.144505061937714    0.331034540799751    0.970072649119990  0.0000
  Si     Si        0.642836559739193    0.678810324512812    0.011784617202813  0.0000
  Si     Si        0.857704870082775    0.350676351040622    0.997648549335214  0.0000
  O2     O2        0.091967596642698    0.210471697544227    0.356241763641556  0.0000
  O2     O2        0.400855822713228    0.826420753756667    0.353013326754291  0.0000
  O2     O2        0.901164348255449    0.226429233828584    0.611901196355145  0.0000
  O2     O2        0.583212735099797    0.820026560959265    0.633243501450476  0.0000
  O2     O2        0.875054996487385    0.883374098540133    0.611199986852794  0.0000
  O2     O2        0.608759702991295    0.164293616324679    0.617075007340584  0.0000
  O2     O2        0.106101177812290    0.863507963214653    0.355666103751750  0.0000
  O2     O2        0.382783773837377    0.170608485449418    0.354517369040759  0.0000
  O2     O2        0.993556117936450    0.014592052144588    0.484350712200769  0.0000
  O2     O2        0.482924180034952    0.020311093125622    0.509653825636828  0.0000
  O2     O2        0.986342839017311    0.012194091221764    0.235995076279714  0.0000
  O3     O3        0.516225079730569    0.031562599200027    0.269912012446910  0.0000
  O2     O2        0.999497575501752    0.014758297479104    0.732831048869436  0.0000
  O2     O2        0.489448098981637    0.045204329997409    0.752634413607790  0.0000
  O1     O1        0.641580420482207    0.122894218629902    0.109427596972083  0.0000
  O3     O3        0.866398026582094    0.908548155893083    0.101155812012611  0.0000
  O2     O2        0.369227370940297    0.160301192890362    0.882402280550890  0.0000
  O3     O3        0.119016497110236    0.874167154719138    0.853943976972663  0.0000
  O2     O2        0.412523378215258    0.824389322949242    0.899772649764958  0.0000
  O2     O2        0.089309517665797    0.207765513408693    0.882569563500610  0.0000
  O3     O3        0.580147619370021    0.783255795596348    0.095696701634097  0.0000
  O2     O2        0.922110961523918    0.231007080677282    0.070512172665706  0.0000
  O3     O3        0.497539642306885    0.084049396727629    0.001525397830988  0.0000
  O2     O2        0.998530360475076    0.954312185378932    0.984460603794134  0.0000
  O2     O2        0.129610270099164    0.534889483633977    0.286230921150443  0.0000
  O2     O2        0.360549522099227    0.502580437915765    0.299180372130235  0.0000
  O2     O2        0.860489896553697    0.551235025903134    0.675933056277148  0.0000
  O2     O2        0.626851188842500    0.494002110092064    0.692135492172711  0.0000
  O2     O2        0.238956640080629    0.288262350932007    0.308362455053596  0.0000
  O2     O2        0.250809123124411    0.748978501609682    0.312382532884182  0.0000
  O2     O2        0.752384250503923    0.300170006631218    0.654351543147517  0.0000
  O2     O2        0.733099412644859    0.746833781115329    0.660551575138935  0.0000
  O2     O2        0.133499321645536    0.276308381774260    0.119535226071905  0.0000
  O2     O2        0.352758283551653    0.749458820246528    0.122247994267906  0.0000
  O2     O2        0.855374614096015    0.298125167924184    0.846284704404782  0.0000
  O2     O2        0.638877802034962    0.746101861476540    0.862852254201415  0.0000
  O3     O3        0.833126860149782    0.808072373805998    0.845340960106323  0.0000
  O3     O3        0.662026300376146    0.223144564356254    0.847801418492255  0.0000
  O3     O3        0.152308657486270    0.797306209087085    0.121417215388624  0.0000
  O2     O2        0.340738036424033    0.255886358822249    0.120944383546535  0.0000
  O3     O3        0.622153344170010    0.476019066740006    0.025222595154979  0.0000
  O3     O3        0.880633129744147    0.551883047496451    0.018144218748858  0.0000
  O2     O2        0.368010701693668    0.498282022848054    0.946283880580447  0.0000
  O3     O3        0.120553626341624    0.529030893204514    0.945734671983446  0.0000
  O3     O3        0.770545988944475    0.317613050152372    0.050617852954358  0.0000
  O3     O3        0.732723818508871    0.715652642561810    0.056700677752641  0.0000
  O2     O2        0.236834031762447    0.309935037049409    0.934328530331437  0.0000
  O3     O3        0.260593304113078    0.739349502788883    0.920194527133247  0.0000
