data_c01174.vasp
_audit_creation_method             Generated by GULP
_audit_author_name                 Salvador R. G. Balestra
_symmetry_space_group_name_H-M     'P 1             '
_symmetry_Int_Tables_number        1

loop_
_symmetry_equiv_pos_site_id
_symmetry_equiv_pos_as_xyz
_cell_length_a                       17.1397
_cell_length_b                        7.6363
_cell_length_c                       10.3435
_cell_angle_alpha                   89.5381
_cell_angle_beta                    90.1901
_cell_angle_gamma                   89.5134

loop_
_atom_site_label
_atom_site_type_symbol
_atom_site_fract_x
_atom_site_fract_y
_atom_site_fract_z
_atom_site_charge
  Ge     Ge        0.160189999999943    0.293909999999983    0.273440000000051  0.0000
  Ge     Ge        0.361506303827480    0.659795027046541    0.269207839067505  0.0000
  Ge     Ge        0.858409836177789    0.293157509075265    0.704165636917994  0.0000
  Ge     Ge        0.342187980074004    0.252494609833751    0.961375168609715  0.0000
  Si     Si        0.057044496348651    0.984045212281803    0.360765581624685  0.0000
  Si     Si        0.465770077028224    0.967880403207672    0.352855109438762  0.0000
  Si     Si        0.964141715545306    0.985148787069121    0.620584084851990  0.0000
  Si     Si        0.562343553402471    0.981038513351774    0.611805301854523  0.0000
  Si     Si        0.563479944395856    0.984092322619392    0.094453186627079  0.0000
  Si     Si        0.950820116820485    0.979480488056776    0.111216689846756  0.0000
  Si     Si        0.451540462131025    0.968110247384984    0.854652557629618  0.0000
  Si     Si        0.065766659646984    0.985684317860617    0.874832783988412  0.0000
  Si     Si        0.666986507757161    0.676789733787398    0.703670654850251  0.0000
  Si     Si        0.847556449203638    0.702341763861978    0.712008975298896  0.0000
  Si     Si        0.675068241569523    0.274376171954135    0.701974115152684  0.0000
  Si     Si        0.179083836827358    0.701790616794036    0.271821591206127  0.0000
  Si     Si        0.344994846938698    0.248043978521392    0.268021502378659  0.0000
  Si     Si        0.674793812976162    0.273959765792537    0.005483840741938  0.0000
  Si     Si        0.843001438168386    0.691589194186108    0.013588689464131  0.0000
  Si     Si        0.179112561286244    0.695051570965717    0.967133712228632  0.0000
  Si     Si        0.360736845946512    0.655879675364875    0.959871591970475  0.0000
  Si     Si        0.156352753887911    0.299151413767302    0.969035985697094  0.0000
  Si     Si        0.662561382258705    0.671822902694898    0.004450538374002  0.0000
  Si     Si        0.854789434493465    0.291171004837181    0.012068623545415  0.0000
  O3     O3        0.095883087062144    0.173401783665087    0.364564687702192  0.0000
  O3     O3        0.428741637643185    0.776584040347588    0.355950583924783  0.0000
  O3     O3        0.925061367701506    0.175690917481707    0.615813719318563  0.0000
  O2     O2        0.612837529683083    0.801987475644160    0.616086280666309  0.0000
  O2     O2        0.893402037008299    0.848224845558087    0.632170506128051  0.0000
  O2     O2        0.618347970145706    0.147460455700490    0.624603075048486  0.0000
  O2     O2        0.126250255497565    0.842788543506489    0.344814619391080  0.0000
  O2     O2        0.395167109448078    0.108928691984732    0.352348979932636  0.0000
  O2     O2        0.012416672435674    0.945002975315296    0.492835358648388  0.0000
  O2     O2        0.519817286533891    0.997650414266419    0.475880883966283  0.0000
  O2     O2        0.994711633425600    0.966693766470493    0.246225254977210  0.0000
  O2     O2        0.519312437326420    0.994997089932516    0.228091004236366  0.0000
  O2     O2        0.022673121038193    0.961708452587277    0.740314471083431  0.0000
  O2     O2        0.497599479625549    0.978497045527416    0.722177632289958  0.0000
  O2     O2        0.627658473303538    0.136681724510612    0.091180553631677  0.0000
  O2     O2        0.887364949866186    0.824500811806367    0.106521426773627  0.0000
  O3     O3        0.382004082285841    0.108023487108404    0.854208284899607  0.0000
  O2     O2        0.135060176885569    0.842119083857552    0.883002173179810  0.0000
  O2     O2        0.416460308883040    0.774543245615456    0.871181699954033  0.0000
  O2     O2        0.099433006013014    0.182499875802993    0.880052264334718  0.0000
  O2     O2        0.604982206958413    0.793853997528178    0.085959714489651  0.0000
  O2     O2        0.908578884556348    0.168924037032134    0.103302447190647  0.0000
  O2     O2        0.505168320030301    0.020117908338195    0.976064822268238  0.0000
  O2     O2        0.008993635260694    0.948640310658852    0.993540336101781  0.0000
  O3     O3        0.160464885235813    0.508169386989780    0.323532225250931  0.0000
  O3     O3        0.362145686531862    0.443514675793885    0.315627947799526  0.0000
  O3     O3        0.879662068171531    0.511184982863186    0.681397924112566  0.0000
  O2     O2        0.647591527364903    0.474854018052705    0.675386647191775  0.0000
  O3     O3        0.253772808322376    0.210098521708213    0.283393553421970  0.0000
  O3     O3        0.269029530577403    0.744412608673143    0.294362103035226  0.0000
  O3     O3        0.763553386087616    0.250936279631093    0.657523682374038  0.0000
  O2     O2        0.756869219872609    0.713268700246313    0.670487585833355  0.0000
  O3     O3        0.128033749812614    0.280225372026067    0.115529048885626  0.0000
  O3     O3        0.385839922405735    0.678067512805060    0.108028991068210  0.0000
  O3     O3        0.870137573243435    0.238087478803095    0.865255118608127  0.0000
  O2     O2        0.650990573574705    0.720419039464342    0.853644819305235  0.0000
  O2     O2        0.855465349167916    0.743942781173812    0.864219902650901  0.0000
  O2     O2        0.669167667071764    0.228719950062221    0.854171153815561  0.0000
  O2     O2        0.160360407928588    0.711451887345563    0.118537522848779  0.0000
  O3     O3        0.370594254970692    0.225237779149791    0.119746341947060  0.0000
  O2     O2        0.640765892786781    0.469246565123246    0.030011049760784  0.0000
  O2     O2        0.875697563005814    0.494446631147294    0.036260792674171  0.0000
  O3     O3        0.368817867760589    0.459925288636559    0.912177094055119  0.0000
  O2     O2        0.152846830499085    0.501899066896673    0.921246421150793  0.0000
  O2     O2        0.764604660405856    0.262226289823072    0.048610725888438  0.0000
  O2     O2        0.751551258123631    0.703165099468911    0.047210730128385  0.0000
  O3     O3        0.243165476317409    0.226241935537908    0.956648041943780  0.0000
  O2     O2        0.270885080371227    0.719949832997388    0.945653304445679  0.0000
