data_c01189.vasp
_audit_creation_method             Generated by GULP
_audit_author_name                 Salvador R. G. Balestra
_symmetry_space_group_name_H-M     'P 1             '
_symmetry_Int_Tables_number        1

loop_
_symmetry_equiv_pos_site_id
_symmetry_equiv_pos_as_xyz
_cell_length_a                       17.1734
_cell_length_b                        7.6402
_cell_length_c                       10.2512
_cell_angle_alpha                   90.4886
_cell_angle_beta                    90.1093
_cell_angle_gamma                   89.2764

loop_
_atom_site_label
_atom_site_type_symbol
_atom_site_fract_x
_atom_site_fract_y
_atom_site_fract_z
_atom_site_charge
  Ge     Ge        0.160189999999943    0.293909999999983    0.273440000000051  0.0000
  Ge     Ge        0.332901895626258    0.734819068222347    0.275966407089776  0.0000
  Ge     Ge        0.844325573753798    0.678229505293477    0.703827482258347  0.0000
  Ge     Ge        0.667117400857400    0.726302662164634    0.019211596456588  0.0000
  Si     Si        0.041946901093442    0.010118542112729    0.355678306451824  0.0000
  Si     Si        0.449940817334962    0.021901380513529    0.360640635114032  0.0000
  Si     Si        0.948073368189997    0.983782038503607    0.615763944870632  0.0000
  Si     Si        0.547973342898417    0.013743820366896    0.618866856443445  0.0000
  Si     Si        0.552875689267753    0.015207046950007    0.106283420827565  0.0000
  Si     Si        0.942521756261191    0.002611514884257    0.097662102768024  0.0000
  Si     Si        0.442252582331268    0.005636895505548    0.865606982955662  0.0000
  Si     Si        0.056561592894857    0.007463652621799    0.860183426171144  0.0000
  Si     Si        0.830366450010124    0.272831910441600    0.713369446712509  0.0000
  Si     Si        0.663751791512008    0.719427663940456    0.707430441424095  0.0000
  Si     Si        0.651927126283611    0.314574921266579    0.716167039120084  0.0000
  Si     Si        0.150428261252902    0.708284957619050    0.272639228995323  0.0000
  Si     Si        0.342250425781277    0.321579418252786    0.279692096105283  0.0000
  Si     Si        0.648632608869569    0.325626061580404    0.019161404552769  0.0000
  Si     Si        0.847745918204238    0.685318921557301    0.018403437141359  0.0000
  Si     Si        0.344388342967461    0.320263183624125    0.972447410398301  0.0000
  Si     Si        0.153097997686466    0.696203765094000    0.966706839709345  0.0000
  Si     Si        0.334699289911950    0.719889524172583    0.966114679133212  0.0000
  Si     Si        0.163209099075651    0.295625230268798    0.963223082034623  0.0000
  Si     Si        0.828537441171793    0.290711777568788    0.019312065633001  0.0000
  O3     O3        0.102503377795121    0.166226104085088    0.368389853770100  0.0000
  O3     O3        0.389235702280039    0.866112132736332    0.372509938321619  0.0000
  O2     O2        0.875928233368026    0.116879197180560    0.640605961342377  0.0000
  O2     O2        0.605767520440693    0.847093750363088    0.628714445712766  0.0000
  O3     O3        0.913879154934028    0.791228890010055    0.620699003519710  0.0000
  O2     O2        0.593629971537979    0.195336646177926    0.633738568065691  0.0000
  O2     O2        0.088482201009864    0.825598094006165    0.352772511546108  0.0000
  O2     O2        0.403433390405746    0.206464703445999    0.362371826076561  0.0000
  O2     O2        0.982050583466065    0.017432249627956    0.473826724925046  0.0000
  O2     O2        0.512051044267517    0.013984798391027    0.475567588130156  0.0000
  O2     O2        0.994155594479099    0.035539614354928    0.223245161735740  0.0000
  O2     O2        0.493932319812980    0.000050009493262    0.223959688698137  0.0000
  O2     O2        0.017569663035799    0.011572091572581    0.718857591748034  0.0000
  O2     O2        0.478041637915865    0.002732240786164    0.722024382262056  0.0000
  O2     O2        0.591627955559835    0.206722859558746    0.103722986428914  0.0000
  O2     O2        0.910010257931297    0.805029160021140    0.095401871920193  0.0000
  O2     O2        0.401736262068455    0.194139349393990    0.891316998278777  0.0000
  O2     O2        0.098257652562437    0.818943703381235    0.879091501562475  0.0000
  O2     O2        0.379422484336938    0.851030956380427    0.871379246775390  0.0000
  O2     O2        0.119290601079282    0.162426045511379    0.866845245113456  0.0000
  O3     O3        0.620672518269541    0.872849813491062    0.119702708814605  0.0000
  O2     O2        0.871399932278923    0.142797536968702    0.103699514726940  0.0000
  O2     O2        0.509827845708717    0.969118890944912    0.970366955232812  0.0000
  O2     O2        0.991363770082888    0.041587827891719    0.968574730641505  0.0000
  O3     O3        0.144447817547589    0.510113511574868    0.316142448461289  0.0000
  O3     O3        0.347807317063977    0.520897310975516    0.322896487175492  0.0000
  O3     O3        0.865520223130623    0.458727008637340    0.679302766770188  0.0000
  O2     O2        0.632957991761358    0.519638637953028    0.695730947431012  0.0000
  O3     O3        0.256877257055329    0.246466352186075    0.302536086245730  0.0000
  O3     O3        0.235656360424612    0.783975459026710    0.297830877851749  0.0000
  O2     O2        0.739810513651626    0.271372854925082    0.669691114286393  0.0000
  O3     O3        0.750586883051944    0.724556750067094    0.651220152955228  0.0000
  O3     O3        0.140374239236878    0.255623823593441    0.110704184562941  0.0000
  O3     O3        0.356412227701318    0.763883911964368    0.114126621180642  0.0000
  O2     O2        0.834101132399453    0.238989539575077    0.867723978935131  0.0000
  O3     O3        0.665542324884319    0.781594045261991    0.857007514839007  0.0000
  O3     O3        0.851260023302626    0.732039645098989    0.866648037791351  0.0000
  O2     O2        0.641496313110821    0.267389000799979    0.867802079523543  0.0000
  O2     O2        0.131791155974351    0.723722354248515    0.117977146637437  0.0000
  O2     O2        0.361816285335195    0.302105622641768    0.125521148699428  0.0000
  O3     O3        0.624183958386431    0.524685317745749    0.038839067715269  0.0000
  O2     O2        0.868571841929031    0.479584050623799    0.040988827386852  0.0000
  O2     O2        0.359329358498174    0.519994173631775    0.930284071127077  0.0000
  O2     O2        0.138850630807580    0.494634685887313    0.926520945692924  0.0000
  O2     O2        0.738618010099790    0.300066130762464    0.063639570012287  0.0000
  O3     O3        0.762135403301771    0.721227120838905    0.072315679048097  0.0000
  O2     O2        0.255564536343292    0.268543817221060    0.943917802743626  0.0000
  O2     O2        0.242545121372747    0.746033872481883    0.944350766727307  0.0000
