data_c01146.vasp
_audit_creation_method             Generated by GULP
_audit_author_name                 Salvador R. G. Balestra
_symmetry_space_group_name_H-M     'P 1             '
_symmetry_Int_Tables_number        1

loop_
_symmetry_equiv_pos_site_id
_symmetry_equiv_pos_as_xyz
_cell_length_a                       16.9831
_cell_length_b                        7.5675
_cell_length_c                       10.3415
_cell_angle_alpha                   90.2442
_cell_angle_beta                    89.7604
_cell_angle_gamma                   89.9236

loop_
_atom_site_label
_atom_site_type_symbol
_atom_site_fract_x
_atom_site_fract_y
_atom_site_fract_z
_atom_site_charge
  Ge     Ge        0.556730000000016    0.000000000000000    0.122129999999970  0.0000
  Ge     Ge        0.651617590791484    0.327124801718581    0.020805867650189  0.0000
  Ge     Ge        0.362657203597715    0.315781058497226    0.969829971127520  0.0000
  Ge     Ge        0.337796893567850    0.728739368647237    0.977135789467590  0.0000
  Si     Si        0.054651117668070    0.974840207528368    0.362465920637021  0.0000
  Si     Si        0.454502398485392    0.985214193162174    0.377569912928472  0.0000
  Si     Si        0.960568765078791    0.974931719021046    0.626618066893123  0.0000
  Si     Si        0.560004881881256    0.988636786606921    0.627277515034451  0.0000
  Si     Si        0.948856469897688    0.990222485404708    0.112670575249028  0.0000
  Si     Si        0.453158163532781    0.996160131019167    0.873584996898185  0.0000
  Si     Si        0.062912772896462    0.981204161125192    0.878876140385507  0.0000
  Si     Si        0.174002350983441    0.260001565204990    0.273009333983216  0.0000
  Si     Si        0.337359992756155    0.704702544081438    0.282543806964130  0.0000
  Si     Si        0.841376585943927    0.263016552542969    0.720301037572202  0.0000
  Si     Si        0.676981226450166    0.705112744451653    0.706022125039551  0.0000
  Si     Si        0.857843925799239    0.667600463871117    0.710254693529492  0.0000
  Si     Si        0.661035243016502    0.297872725464359    0.714540668890753  0.0000
  Si     Si        0.157796586367829    0.663511714773349    0.280094530033037  0.0000
  Si     Si        0.354587122099618    0.292741846194992    0.273371564278769  0.0000
  Si     Si        0.857814343635613    0.671945571132420    0.010226441818637  0.0000
  Si     Si        0.154772983745015    0.662344624784557    0.976819618180095  0.0000
  Si     Si        0.176832283033511    0.266358976972698    0.970035576473606  0.0000
  Si     Si        0.676263516780588    0.730686170965162    0.006983699017623  0.0000
  Si     Si        0.836278669910199    0.276615389864034    0.023408766654669  0.0000
  O2     O2        0.123167552051296    0.121555452372128    0.354175817796385  0.0000
  O2     O2        0.389009046876572    0.830096208969831    0.375405569363255  0.0000
  O2     O2        0.893629699015372    0.124624431889755    0.640424586974070  0.0000
  O2     O2        0.625910983876865    0.834238635081768    0.615258997009486  0.0000
  O2     O2        0.918718279139839    0.783020773193483    0.626506190552094  0.0000
  O2     O2        0.602791502897610    0.179020031074537    0.627121155787759  0.0000
  O2     O2        0.095162815295563    0.781357929244051    0.359304734745361  0.0000
  O2     O2        0.414147593959568    0.177762805781104    0.360271388849718  0.0000
  O2     O2        0.006809592437386    0.999849559674633    0.493808402644254  0.0000
  O2     O2        0.497663060211534    0.980972731501697    0.513713582252770  0.0000
  O2     O2        0.994299351377042    0.001075629876337    0.246257965703529  0.0000
  O3     O3        0.520995823574826    0.948491396692716    0.271433604991268  0.0000
  O2     O2        0.023350740898315    0.994579894174512    0.740372357685096  0.0000
  O2     O2        0.510948521286855    0.952760163693994    0.756898755761687  0.0000
  O1     O1        0.582003706765540    0.218330944072383    0.108728668762030  0.0000
  O2     O2        0.913630502544517    0.793612086953084    0.097438965451563  0.0000
  O3     O3        0.431399171807753    0.202114191512936    0.878583888209968  0.0000
  O2     O2        0.092054304106631    0.780649666836214    0.900283381606730  0.0000
  O3     O3        0.371917750067131    0.887775899501643    0.873230697990762  0.0000
  O2     O2        0.135686617861176    0.117496047869547    0.882886697929621  0.0000
  O3     O3        0.644618402012268    0.889699874572046    0.091390052574408  0.0000
  O2     O2        0.879581480213139    0.135132663678839    0.113757070885988  0.0000
  O3     O3        0.491876864462054    0.927985306975766    0.006537913128431  0.0000
  O2     O2        0.004396429661992    0.039985900491882    0.992783329413298  0.0000
  O2     O2        0.140210088158235    0.456258608054701    0.301271316710636  0.0000
  O2     O2        0.369999891136112    0.503317374258041    0.286734380931086  0.0000
  O2     O2        0.874069597312487    0.459461341225894    0.690872577642940  0.0000
  O2     O2        0.645229742149828    0.505441500679001    0.689167349200141  0.0000
  O2     O2        0.265111158566310    0.249664927612593    0.316431566663588  0.0000
  O2     O2        0.246178341028071    0.706904219530552    0.328197748077219  0.0000
  O2     O2        0.750836460817559    0.250179913290448    0.675097710097365  0.0000
  O2     O2        0.768892176012859    0.713309720904274    0.666324054112085  0.0000
  O2     O2        0.172007383264411    0.212810827115628    0.121101382780328  0.0000
  O3     O3        0.342792019006254    0.782768383979214    0.139454909485789  0.0000
  O2     O2        0.842662427906505    0.219764672787413    0.872615003578836  0.0000
  O2     O2        0.668553563165948    0.769871540137124    0.853741006154215  0.0000
  O2     O2        0.871583382782825    0.719794672622218    0.859893303458610  0.0000
  O3     O3        0.643507833856060    0.253827679939414    0.862390459895357  0.0000
  O2     O2        0.150582329597940    0.710736606503370    0.129088841028605  0.0000
  O3     O3        0.372331356842481    0.237448403610203    0.126935218212511  0.0000
  O3     O3        0.630882360381710    0.549117710091888    0.035951587667019  0.0000
  O2     O2        0.878106474492079    0.468084372052097    0.039240981540278  0.0000
  O1     O1        0.386137760055645    0.531745897651573    0.955903285755680  0.0000
  O2     O2        0.134222948219092    0.456386955378649    0.952097232215998  0.0000
  O3     O3        0.746966519145632    0.285137117032991    0.069214488322385  0.0000
  O2     O2        0.767104548211003    0.703404848796166    0.045075745161477  0.0000
  O3     O3        0.266356954932505    0.279477695007692    0.924941979442644  0.0000
  O3     O3        0.241885006808212    0.699065951015252    0.928537802013974  0.0000
