data_c01139.vasp
_audit_creation_method             Generated by GULP
_audit_author_name                 Salvador R. G. Balestra
_symmetry_space_group_name_H-M     'P 1             '
_symmetry_Int_Tables_number        1

loop_
_symmetry_equiv_pos_site_id
_symmetry_equiv_pos_as_xyz
_cell_length_a                       16.9263
_cell_length_b                        7.6248
_cell_length_c                       10.3357
_cell_angle_alpha                   89.8523
_cell_angle_beta                    90.4474
_cell_angle_gamma                   90.4019

loop_
_atom_site_label
_atom_site_type_symbol
_atom_site_fract_x
_atom_site_fract_y
_atom_site_fract_z
_atom_site_charge
  Ge     Ge        0.556730000000016    0.000000000000000    0.122129999999970  0.0000
  Ge     Ge        0.675662408042891    0.283680430499274    0.012815889925809  0.0000
  Ge     Ge        0.830416072822236    0.745914349297250    0.013690604183274  0.0000
  Ge     Ge        0.334521701725009    0.303643956638598    0.967082777232399  0.0000
  Si     Si        0.052134023294628    0.020516579107908    0.363595758584714  0.0000
  Si     Si        0.451865769744530    0.008931006445969    0.376850209451752  0.0000
  Si     Si        0.953474747751910    0.023853780136732    0.622768312752202  0.0000
  Si     Si        0.554030725029019    0.999849986529116    0.630479811654320  0.0000
  Si     Si        0.944134550347743    0.027803730256728    0.113463777611151  0.0000
  Si     Si        0.447169284443625    0.023855972793407    0.878648326608802  0.0000
  Si     Si        0.054351930125716    0.012656704158842    0.878716765012623  0.0000
  Si     Si        0.157416988894728    0.326873831273382    0.276890368135663  0.0000
  Si     Si        0.347830923193636    0.706037094898360    0.276688523911329  0.0000
  Si     Si        0.852287513397731    0.333348841967664    0.711196100741630  0.0000
  Si     Si        0.656223875228386    0.690029081594526    0.706287091459244  0.0000
  Si     Si        0.836039477625519    0.735941685955489    0.706369454521530  0.0000
  Si     Si        0.671544370305565    0.287359251986272    0.706212249517310  0.0000
  Si     Si        0.165315206650389    0.728589328542197    0.276722960101843  0.0000
  Si     Si        0.338467349057875    0.299405286831023    0.274674035910153  0.0000
  Si     Si        0.166540433197135    0.729327581829738    0.975647886411215  0.0000
  Si     Si        0.351265954366381    0.707547818677639    0.977471370153831  0.0000
  Si     Si        0.149761325354047    0.332330879599733    0.972804248176582  0.0000
  Si     Si        0.646181266040272    0.680644385347003    0.009136324834384  0.0000
  Si     Si        0.860148947633885    0.350667921966087    0.013531673830261  0.0000
  O2     O2        0.099284627564134    0.204467898559965    0.359096446334637  0.0000
  O2     O2        0.404841543861433    0.824323425763101    0.364897030347600  0.0000
  O2     O2        0.912616679707624    0.214246890174817    0.631218609739979  0.0000
  O2     O2        0.595651896787971    0.809551725457105    0.624135047760940  0.0000
  O2     O2        0.887298546646403    0.870625497708029    0.620554742907675  0.0000
  O2     O2        0.620167391689005    0.153257393568251    0.618294519777420  0.0000
  O2     O2        0.114062219851825    0.860416832199534    0.361727586525310  0.0000
  O2     O2        0.392297997577377    0.171973054420818    0.361301350239571  0.0000
  O2     O2        0.002459024388865    0.012472832615449    0.492735957284525  0.0000
  O2     O2        0.489671102174436    0.017808235246640    0.518487294638475  0.0000
  O2     O2        0.992316032449448    0.003519464907246    0.244341420183838  0.0000
  O3     O3        0.522214769655805    0.017924185182450    0.276144509546263  0.0000
  O2     O2        0.014324704651828    0.994763035647210    0.739971979941256  0.0000
  O2     O2        0.509105340944681    0.020829337678175    0.764695186204479  0.0000
  O1     O1        0.640500237858561    0.125779348381740    0.111972530685668  0.0000
  O3     O3        0.866814013125627    0.907462117017337    0.113872788277554  0.0000
  O3     O3        0.379697049617221    0.166919940301864    0.859588904922259  0.0000
  O2     O2        0.126095056903732    0.874741440960465    0.885655335408353  0.0000
  O2     O2        0.406112157538198    0.832725206032162    0.892013127539274  0.0000
  O2     O2        0.086103245564722    0.211326187936778    0.898440936547649  0.0000
  O3     O3        0.579804200582941    0.786757577280015    0.082998723099330  0.0000
  O2     O2        0.921173385734299    0.231588529235510    0.094908312135729  0.0000
  O3     O3        0.491054799673192    0.083125526350485    0.009897629760323  0.0000
  O2     O2        0.993373535777658    0.958386834647383    0.990423011907922  0.0000
  O2     O2        0.136925050955524    0.529576472485924    0.304331938523906  0.0000
  O2     O2        0.367314375474046    0.500729054442188    0.294355381303551  0.0000
  O2     O2        0.870690853052592    0.539581278381712    0.689831771536721  0.0000
  O2     O2        0.637170822989596    0.483801094203765    0.686468149961101  0.0000
  O2     O2        0.247287610373411    0.285338270368307    0.318763259730273  0.0000
  O2     O2        0.257595143915077    0.745944792887661    0.314446151033686  0.0000
  O2     O2        0.763374661353221    0.287660282058674    0.663772951651474  0.0000
  O2     O2        0.744787836659979    0.733963823399419    0.658394835369326  0.0000
  O2     O2        0.146756271785204    0.285648472396194    0.125143910127430  0.0000
  O2     O2        0.364351521476824    0.760450439181370    0.128028959663207  0.0000
  O2     O2        0.861866808806516    0.289972547767997    0.862992403490943  0.0000
  O2     O2        0.648705799540998    0.736316021618011    0.857311226091919  0.0000
  O3     O3        0.837894669963404    0.802381550354493    0.852643494152400  0.0000
  O3     O3        0.667452329547814    0.221302147079904    0.852579805967862  0.0000
  O2     O2        0.154858373929434    0.778052447828175    0.125967994287718  0.0000
  O3     O3        0.344949597628225    0.240850134911505    0.127045840594914  0.0000
  O3     O3        0.624700985183396    0.478450819150569    0.026430788324521  0.0000
  O3     O3        0.882436339447801    0.551965337641423    0.031736385406111  0.0000
  O3     O3        0.375170970730096    0.510540492769408    0.951636592668328  0.0000
  O2     O2        0.128976398950007    0.537102600477538    0.948761947934490  0.0000
  O3     O3        0.771530268989702    0.322215628587101    0.060813179818596  0.0000
  O3     O3        0.733966840841401    0.721510279796080    0.062105310004572  0.0000
  O3     O3        0.236561511278656    0.297808412323493    0.922093772104524  0.0000
  O2     O2        0.258910717792473    0.729142877264973    0.941644993991790  0.0000
