data_c01141.vasp
_audit_creation_method             Generated by GULP
_audit_author_name                 Salvador R. G. Balestra
_symmetry_space_group_name_H-M     'P 1             '
_symmetry_Int_Tables_number        1

loop_
_symmetry_equiv_pos_site_id
_symmetry_equiv_pos_as_xyz
_cell_length_a                       16.9067
_cell_length_b                        7.5984
_cell_length_c                       10.3711
_cell_angle_alpha                   90.3718
_cell_angle_beta                    90.1470
_cell_angle_gamma                   90.2895

loop_
_atom_site_label
_atom_site_type_symbol
_atom_site_fract_x
_atom_site_fract_y
_atom_site_fract_z
_atom_site_charge
  Ge     Ge        0.556730000000016    0.000000000000000    0.122129999999970  0.0000
  Ge     Ge        0.674071409624266    0.281153065847835    0.006934803757054  0.0000
  Ge     Ge        0.827862699893813    0.751689416922944    0.009163390552951  0.0000
  Ge     Ge        0.350085136687885    0.690714010054836    0.964171831347697  0.0000
  Si     Si        0.047045336451974    0.026074690828735    0.359105987994784  0.0000
  Si     Si        0.447613437926879    0.013566958358053    0.371858904532299  0.0000
  Si     Si        0.948335594688921    0.028220418839199    0.617888446436365  0.0000
  Si     Si        0.547625151932215    0.011392437612440    0.627436860267484  0.0000
  Si     Si        0.940667191230504    0.034587813179485    0.108910960527725  0.0000
  Si     Si        0.446502480063319    0.012495709788409    0.879011257361374  0.0000
  Si     Si        0.050037988792687    0.003950917322820    0.873015660529793  0.0000
  Si     Si        0.151158137221653    0.329746961588040    0.273485943457990  0.0000
  Si     Si        0.344515161731223    0.708758803277992    0.269450634533163  0.0000
  Si     Si        0.847962868788987    0.341446383663415    0.703310089580919  0.0000
  Si     Si        0.649221425384319    0.699067675104392    0.710418742744056  0.0000
  Si     Si        0.829795266687582    0.745130823864304    0.702925772357265  0.0000
  Si     Si        0.667459471701485    0.293762828342139    0.702397050555297  0.0000
  Si     Si        0.162355327423471    0.733493126557596    0.264951040608630  0.0000
  Si     Si        0.333084136422446    0.301797177840631    0.271847179009543  0.0000
  Si     Si        0.330105225100106    0.284886194115910    0.970910834999362  0.0000
  Si     Si        0.163529727694066    0.719242131255650    0.962804312162082  0.0000
  Si     Si        0.147039894560011    0.320819902854772    0.973929582734631  0.0000
  Si     Si        0.643306439854226    0.678669873257374    0.010801889934040  0.0000
  Si     Si        0.857722685438668    0.356268988704111    0.005058805126013  0.0000
  O2     O2        0.093513456294746    0.212187715401346    0.360612012749842  0.0000
  O2     O2        0.402414123088359    0.827128117713110    0.357205520548456  0.0000
  O2     O2        0.909245197716205    0.222102266578973    0.623049380589369  0.0000
  O2     O2        0.587216554033856    0.817710197008794    0.631577680248494  0.0000
  O2     O2        0.879485615135395    0.880184978838037    0.615424546587195  0.0000
  O2     O2        0.615654222800522    0.160870487112205    0.613520003314266  0.0000
  O2     O2        0.109784133529494    0.868041401628404    0.346545452446456  0.0000
  O2     O2        0.385673969591602    0.173596435259317    0.358256430192262  0.0000
  O2     O2        0.999615644657352    0.007923157661758    0.490275054693169  0.0000
  O2     O2        0.486302615100277    0.020981669078777    0.511649215374970  0.0000
  O2     O2        0.985300598907555    0.015921851522614    0.242747774170653  0.0000
  O3     O3        0.518234522253802    0.032193768621138    0.271778960947570  0.0000
  O2     O2        0.006081007582726    0.996827148742067    0.737746303888756  0.0000
  O2     O2        0.497455013785090    0.053944471793707    0.754203150749083  0.0000
  O1     O1        0.641336922314952    0.122570646115670    0.107176525821521  0.0000
  O3     O3        0.862527812260239    0.915933051399840    0.109236661385901  0.0000
  O2     O2        0.366676747996456    0.130581999580432    0.884078367651119  0.0000
  O2     O2        0.116687879989545    0.854006523603031    0.873044651222466  0.0000
  O3     O3        0.418879377415263    0.810324369944504    0.879454067509326  0.0000
  O2     O2        0.089072396422287    0.196829643678679    0.891399039037181  0.0000
  O3     O3        0.579084478766231    0.782021599762662    0.093442917110848  0.0000
  O2     O2        0.920181006723662    0.238435389733953    0.083498247953617  0.0000
  O3     O3        0.494961609232722    0.075767586274976    0.003118352087179  0.0000
  O2     O2        0.990998231114182    0.956659140987293    0.989189224641007  0.0000
  O2     O2        0.132615290356922    0.535524598270023    0.294643032711921  0.0000
  O2     O2        0.362591413663711    0.502581896094970    0.291405566287780  0.0000
  O2     O2        0.864987625275261    0.548761087349794    0.682746935012511  0.0000
  O2     O2        0.632216257348374    0.491145130440926    0.689718839161176  0.0000
  O2     O2        0.241420784071357    0.288055064780800    0.312967062243900  0.0000
  O2     O2        0.253935174691511    0.751797722598653    0.306515587023750  0.0000
  O2     O2        0.758923498613958    0.295784947042489    0.656454472456393  0.0000
  O2     O2        0.737465374783192    0.744773846145076    0.661254750799037  0.0000
  O2     O2        0.135660278012126    0.276496465086047    0.124635790442692  0.0000
  O3     O3        0.362467899504531    0.757491377965720    0.122769085297831  0.0000
  O2     O2        0.857944303414647    0.298039683514157    0.854099272044001  0.0000
  O2     O2        0.640618743339336    0.745128269956176    0.861579910535474  0.0000
  O3     O3        0.833987275981184    0.810628689263293    0.849335020734622  0.0000
  O3     O3        0.665987984678063    0.220955014953538    0.846530627667224  0.0000
  O2     O2        0.156949581288119    0.775457606932234    0.113192968733724  0.0000
  O2     O2        0.341239458663837    0.244512561001315    0.122978692367216  0.0000
  O3     O3        0.621892203061205    0.475649435826993    0.022342734830342  0.0000
  O3     O3        0.880575514438106    0.557813975300736    0.024581500138394  0.0000
  O3     O3        0.370246445173844    0.471029693738642    0.941690481682862  0.0000
  O2     O2        0.126449842216061    0.523545977297377    0.945171094451964  0.0000
  O3     O3        0.769797226602141    0.323409222879712    0.054457477517600  0.0000
  O3     O3        0.732019502937706    0.718187855510811    0.058440627901100  0.0000
  O2     O2        0.237609355990018    0.288923983499264    0.935275246089676  0.0000
  O3     O3        0.253523607456799    0.724403156514994    0.918760990121768  0.0000
