data_c01129.vasp
_audit_creation_method             Generated by GULP
_audit_author_name                 Salvador R. G. Balestra
_symmetry_space_group_name_H-M     'P 1             '
_symmetry_Int_Tables_number        1

loop_
_symmetry_equiv_pos_site_id
_symmetry_equiv_pos_as_xyz
_cell_length_a                       17.0563
_cell_length_b                        7.6212
_cell_length_c                       10.2933
_cell_angle_alpha                   91.1518
_cell_angle_beta                    90.1511
_cell_angle_gamma                   90.3637

loop_
_atom_site_label
_atom_site_type_symbol
_atom_site_fract_x
_atom_site_fract_y
_atom_site_fract_z
_atom_site_charge
  Ge     Ge        0.556730000000016    0.000000000000000    0.122129999999970  0.0000
  Ge     Ge        0.666782039976442    0.715390143598498    0.707872989440253  0.0000
  Ge     Ge        0.146374555094152    0.651460112414729    0.956275398430221  0.0000
  Ge     Ge        0.333313854127122    0.694527280986681    0.955813546685792  0.0000
  Si     Si        0.050058037083540    0.991783473398868    0.358142455768085  0.0000
  Si     Si        0.447293984538611    0.009920326793539    0.372449221493774  0.0000
  Si     Si        0.953715664350563    0.988167876710072    0.620390923943017  0.0000
  Si     Si        0.549539592995677    0.998923324785552    0.623463880757577  0.0000
  Si     Si        0.944665003250528    0.995776452014702    0.106952714143937  0.0000
  Si     Si        0.446610574169432    0.980434717571988    0.876196464320828  0.0000
  Si     Si        0.056367543623688    0.973661791386064    0.868826742360507  0.0000
  Si     Si        0.165201811466259    0.279629908830036    0.274520705255890  0.0000
  Si     Si        0.332892633876869    0.715786334651543    0.265899449455112  0.0000
  Si     Si        0.837040249245906    0.276491488311375    0.708320732732087  0.0000
  Si     Si        0.851404079945339    0.679447952794633    0.708159463566367  0.0000
  Si     Si        0.655924440961235    0.302402569147437    0.705352985767889  0.0000
  Si     Si        0.153265329670119    0.683248025662444    0.267259392749406  0.0000
  Si     Si        0.345683692858925    0.310091725402365    0.274896638883104  0.0000
  Si     Si        0.653115579020475    0.313409446942635    0.006595037842183  0.0000
  Si     Si        0.851165601623649    0.676644543904619    0.012133500234245  0.0000
  Si     Si        0.351236278866457    0.296162583018647    0.974717618985979  0.0000
  Si     Si        0.168187064809602    0.253314475821631    0.971832040719168  0.0000
  Si     Si        0.670277540875218    0.717228386064339    0.014077425256764  0.0000
  Si     Si        0.833699169378819    0.279924710039305    0.012248767842984  0.0000
  O2     O2        0.113880416064065    0.149673905833898    0.361274351738022  0.0000
  O2     O2        0.386133184275185    0.850371943923721    0.349593175841461  0.0000
  O2     O2        0.887266288052906    0.137741055759144    0.625206052013041  0.0000
  O3     O3        0.610095757894343    0.840674647162972    0.607995085621000  0.0000
  O2     O2        0.913692690706173    0.796551107510390    0.630549451348222  0.0000
  O2     O2        0.599494994219741    0.179398199341546    0.617201760746017  0.0000
  O2     O2        0.094120873764987    0.805535909541263    0.349459383424159  0.0000
  O2     O2        0.403379855898160    0.197068788463220    0.363120549397014  0.0000
  O2     O2        0.999734535950983    0.999821060621161    0.487353662774703  0.0000
  O2     O2        0.481458164117634    0.995921650600763    0.516994269192178  0.0000
  O2     O2        0.990123650761662    0.018379112859585    0.240775016320119  0.0000
  O3     O3        0.520168013829917    0.999393024295778    0.276508117666042  0.0000
  O2     O2        0.016373658675216    0.022930261269988    0.734445159491918  0.0000
  O2     O2        0.509786524862993    0.981477951997411    0.763569127389735  0.0000
  O3     O3        0.592730982609141    0.207822723440780    0.092007820447479  0.0000
  O2     O2        0.909004369732900    0.798863049921869    0.098008699681533  0.0000
  O2     O2        0.404269329872340    0.168956476469526    0.887363117433031  0.0000
  O3     O3        0.078285325626553    0.770635715414397    0.871413180590968  0.0000
  O3     O3        0.381949353795206    0.831425089246643    0.852712418229105  0.0000
  O2     O2        0.136619540986375    0.087379256421578    0.887841376030492  0.0000
  O3     O3        0.630348825406805    0.845617796480123    0.116140398782269  0.0000
  O2     O2        0.876064952199025    0.139851888308363    0.101956753783168  0.0000
  O3     O3        0.486983496437304    0.933180203849470    0.011836666418949  0.0000
  O2     O2        0.001201870096187    0.032722128978750    0.987272428145223  0.0000
  O2     O2        0.134431731451110    0.478399018515073    0.293117900087183  0.0000
  O2     O2        0.363981875312283    0.517647525197436    0.288489601838690  0.0000
  O2     O2        0.867489248832839    0.473193379798752    0.680384422746286  0.0000
  O3     O3        0.635617215957696    0.501793921650178    0.682882525005896  0.0000
  O2     O2        0.256299095877132    0.271049614228596    0.316707938929315  0.0000
  O2     O2        0.242423582297485    0.727367088789438    0.311584810937223  0.0000
  O2     O2        0.746118872748837    0.261786377126962    0.666480919994623  0.0000
  O3     O3        0.764513879342375    0.728558935202515    0.665716632684626  0.0000
  O2     O2        0.158589960449235    0.216699885487418    0.124848743623512  0.0000
  O3     O3        0.336234981567035    0.765939810271927    0.116515429329741  0.0000
  O2     O2        0.844594214821269    0.231691076570980    0.860249453926990  0.0000
  O3     O3        0.657405607701476    0.782877129525318    0.868112832499581  0.0000
  O2     O2        0.863725419170078    0.720899249167767    0.861321918884406  0.0000
  O2     O2        0.643116910319574    0.253802098113140    0.856149280937609  0.0000
  O3     O3        0.142067261872654    0.721593956880081    0.116819175289254  0.0000
  O2     O2        0.361692899684926    0.247322925307813    0.126358918580352  0.0000
  O2     O2        0.635355995665211    0.519939396187868    0.021680883528576  0.0000
  O2     O2        0.870403656824840    0.473700227679814    0.039954276907626  0.0000
  O3     O3        0.378060309618067    0.491521184510841    0.949371202018471  0.0000
  O3     O3        0.123464624653936    0.430782586040364    0.939409890444980  0.0000
  O2     O2        0.742384939247986    0.275196443898940    0.050241697558011  0.0000
  O2     O2        0.762100334785029    0.715389595358545    0.049445889964248  0.0000
  O2     O2        0.259510578435151    0.279392058601848    0.937509259769161  0.0000
  O1     O1        0.239139369794835    0.685425820601489    0.901499502292785  0.0000
