data_c01101.vasp
_audit_creation_method             Generated by GULP
_audit_author_name                 Salvador R. G. Balestra
_symmetry_space_group_name_H-M     'P 1             '
_symmetry_Int_Tables_number        1

loop_
_symmetry_equiv_pos_site_id
_symmetry_equiv_pos_as_xyz
_cell_length_a                       17.0229
_cell_length_b                        7.5717
_cell_length_c                       10.3421
_cell_angle_alpha                   89.1350
_cell_angle_beta                    90.3097
_cell_angle_gamma                   89.8607

loop_
_atom_site_label
_atom_site_type_symbol
_atom_site_fract_x
_atom_site_fract_y
_atom_site_fract_z
_atom_site_charge
  Ge     Ge        0.556730000000016    0.000000000000000    0.122129999999970  0.0000
  Ge     Ge        0.848747118098486    0.340043129336867    0.700329513788676  0.0000
  Ge     Ge        0.350495358203608    0.690274168284577    0.968732086581395  0.0000
  Ge     Ge        0.142300582160656    0.342260778851321    0.967671506774688  0.0000
  Si     Si        0.047193163484647    0.012087017453831    0.361170013314159  0.0000
  Si     Si        0.447621332741523    0.000857379987706    0.370626031505111  0.0000
  Si     Si        0.949981498933494    0.027061340030309    0.618082052066644  0.0000
  Si     Si        0.543875912208252    0.020469578438620    0.629790661266802  0.0000
  Si     Si        0.940557327659387    0.011996637180137    0.111387077651212  0.0000
  Si     Si        0.443077874262131    0.013874817784448    0.880731528812068  0.0000
  Si     Si        0.050005363110176    0.023674019239104    0.872525747208505  0.0000
  Si     Si        0.149106107419955    0.321340323601124    0.274135845343132  0.0000
  Si     Si        0.345899839650707    0.696215592695324    0.274804745495780  0.0000
  Si     Si        0.647734911942913    0.708637142292357    0.716547267321470  0.0000
  Si     Si        0.828449777776893    0.751751631409523    0.712635031890538  0.0000
  Si     Si        0.663594348654806    0.301324862394428    0.704108904496088  0.0000
  Si     Si        0.165993416924835    0.728391127269312    0.271590633825652  0.0000
  Si     Si        0.328268631348575    0.289326862462768    0.270007244703277  0.0000
  Si     Si        0.670427622830369    0.281901521063662    0.005079384450891  0.0000
  Si     Si        0.828831761730266    0.729817472941153    0.015177261625901  0.0000
  Si     Si        0.325890713244299    0.289552091227087    0.965938493056352  0.0000
  Si     Si        0.166042203554072    0.743726023044654    0.968144777681675  0.0000
  Si     Si        0.647976221378459    0.680779650679541    0.016196254340546  0.0000
  Si     Si        0.852383977352508    0.332019462961032    0.006144027316553  0.0000
  O2     O2        0.089118165472524    0.203707236777045    0.359768956838794  0.0000
  O2     O2        0.406515619744792    0.808883947921872    0.360867518714927  0.0000
  O3     O3        0.916490467090516    0.224324044462195    0.611629780197422  0.0000
  O2     O2        0.587153079329614    0.830269214936436    0.635578817518761  0.0000
  O2     O2        0.873104456711642    0.902721292050908    0.631627322317599  0.0000
  O2     O2        0.608863558911251    0.175394657072069    0.617807925324935  0.0000
  O2     O2        0.113732532979356    0.860845836719190    0.354255410028473  0.0000
  O2     O2        0.382085956463952    0.151923244246317    0.348366228026029  0.0000
  O2     O2        0.999324262742207    0.984171777597476    0.491798787687701  0.0000
  O2     O2        0.483734369640518    0.023681266629434    0.511873513261855  0.0000
  O2     O2        0.985398859781870    0.991062071347437    0.245629493392443  0.0000
  O3     O3        0.519556784017571    0.022169479304057    0.273610661857175  0.0000
  O2     O2        0.007079110517715    0.986067249319658    0.738759335571771  0.0000
  O2     O2        0.493478858088809    0.059530405015346    0.755983369960919  0.0000
  O3     O3        0.636649921315192    0.136662122525325    0.100047541575367  0.0000
  O2     O2        0.869749619049457    0.870699141418334    0.107912537705529  0.0000
  O2     O2        0.363884657763998    0.132829481852709    0.884350021233438  0.0000
  O2     O2        0.128580425833181    0.904550052060499    0.885695835603082  0.0000
  O3     O3        0.417353418894433    0.810865692370237    0.880700194873562  0.0000
  O3     O3        0.075409337683755    0.226372556113654    0.877723667011437  0.0000
  O3     O3        0.587921679441668    0.783861368366912    0.103995750671926  0.0000
  O2     O2        0.907930284945621    0.212132676856223    0.098733425867614  0.0000
  O3     O3        0.489271789456459    0.066711364781832    0.008971005816808  0.0000
  O2     O2        0.996546580206843    0.965565004492106    0.992965783356068  0.0000
  O2     O2        0.132828727366334    0.530038858680787    0.291668780414598  0.0000
  O2     O2        0.361991675939768    0.486462550288692    0.291020948506109  0.0000
  O3     O3        0.863333257536690    0.563017977924472    0.677531309595194  0.0000
  O2     O2        0.632968806280960    0.503081415662126    0.687546223846242  0.0000
  O2     O2        0.238484616979704    0.278090571215757    0.319282721616793  0.0000
  O2     O2        0.256603278199983    0.737529840551842    0.318214859160256  0.0000
  O3     O3        0.753010676787385    0.290047597355236    0.659190305130732  0.0000
  O2     O2        0.736215871094319    0.758966548036606    0.675553381283722  0.0000
  O3     O3        0.134479867827780    0.271302620974951    0.126501130260558  0.0000
  O3     O3        0.361829695383352    0.753666774320245    0.127880772219592  0.0000
  O3     O3        0.869834876479433    0.283697209579314    0.859353647050085  0.0000
  O2     O2        0.634257243776851    0.746581936605060    0.867904014941618  0.0000
  O2     O2        0.836646516766005    0.788562603274970    0.865524039483648  0.0000
  O2     O2        0.659090770844092    0.236125146919788    0.853858471630276  0.0000
  O2     O2        0.164682293959364    0.784986094974643    0.121344114244772  0.0000
  O2     O2        0.326903912648570    0.242441770363603    0.119290879272870  0.0000
  O2     O2        0.630601405753457    0.472594284871597    0.030410398625958  0.0000
  O2     O2        0.869917129122482    0.537906993545560    0.033672536238657  0.0000
  O3     O3        0.372655233091342    0.471401271190066    0.946483351997746  0.0000
  O3     O3        0.119606034188572    0.562642643087712    0.947121412019482  0.0000
  O2     O2        0.762271644359303    0.292959370225082    0.036971601652703  0.0000
  O2     O2        0.737937665323873    0.721023385833742    0.055829432931310  0.0000
  O3     O3        0.237455465252217    0.312384557069028    0.917522760409508  0.0000
  O3     O3        0.254641790498607    0.723765655997013    0.921708132011878  0.0000
