data_c01132.vasp
_audit_creation_method             Generated by GULP
_audit_author_name                 Salvador R. G. Balestra
_symmetry_space_group_name_H-M     'P 1             '
_symmetry_Int_Tables_number        1

loop_
_symmetry_equiv_pos_site_id
_symmetry_equiv_pos_as_xyz
_cell_length_a                       17.0241
_cell_length_b                        7.5939
_cell_length_c                       10.3136
_cell_angle_alpha                   90.9192
_cell_angle_beta                    90.6990
_cell_angle_gamma                   90.7936

loop_
_atom_site_label
_atom_site_type_symbol
_atom_site_fract_x
_atom_site_fract_y
_atom_site_fract_z
_atom_site_charge
  Ge     Ge        0.556730000000016    0.000000000000000    0.122129999999970  0.0000
  Ge     Ge        0.642924099378466    0.666115005806116    0.719386051745666  0.0000
  Ge     Ge        0.166089063219929    0.716387017133580    0.975987319545888  0.0000
  Ge     Ge        0.857100998983764    0.334455406602322    0.022472607144445  0.0000
  Si     Si        0.044006453675292    0.994763699468125    0.367500070168476  0.0000
  Si     Si        0.443604246044939    0.995670578353359    0.374083839932932  0.0000
  Si     Si        0.942711144217048    0.997610519133652    0.623162535131611  0.0000
  Si     Si        0.538790460720065    0.971055059381772    0.634125739193360  0.0000
  Si     Si        0.948469818451713    0.012353198913292    0.109816885594554  0.0000
  Si     Si        0.441765811974789    0.996336432515210    0.885405130412859  0.0000
  Si     Si        0.055633894494059    0.995100796702735    0.869620759612080  0.0000
  Si     Si        0.147016386807120    0.302542427508099    0.275791455948875  0.0000
  Si     Si        0.339729923257418    0.681212027634534    0.294663163189441  0.0000
  Si     Si        0.841683383708077    0.302700441321981    0.715220468568904  0.0000
  Si     Si        0.825857171559313    0.705889445733673    0.704213455377563  0.0000
  Si     Si        0.662171611285630    0.254761913472100    0.737407034932757  0.0000
  Si     Si        0.160494102375754    0.711105162738125    0.283688978011566  0.0000
  Si     Si        0.328519945335304    0.278756990518113    0.287877671591446  0.0000
  Si     Si        0.674455175079239    0.283429634817318    0.039048955980730  0.0000
  Si     Si        0.830355913557582    0.734654317155939    0.009374715501890  0.0000
  Si     Si        0.331024084819464    0.280935573044474    0.985788605600405  0.0000
  Si     Si        0.348796717276743    0.678083823205420    0.989491480761204  0.0000
  Si     Si        0.147747010085781    0.310851581751591    0.976657749231084  0.0000
  Si     Si        0.649802155794918    0.680396265437424    0.024935227392809  0.0000
  O2     O2        0.088410488618785    0.184051333780338    0.359539326629315  0.0000
  O2     O2        0.400738738846026    0.804008535598769    0.375983737376957  0.0000
  O2     O2        0.896591105617051    0.181304399047259    0.625547006893638  0.0000
  O3     O3        0.573228384617463    0.776469508606588    0.630546213883346  0.0000
  O2     O2        0.880358255987204    0.835804337916352    0.621701125835651  0.0000
  O2     O2        0.612627042766980    0.101035960924007    0.665164249713607  0.0000
  O2     O2        0.107131281830537    0.838249822994152    0.370780710001287  0.0000
  O2     O2        0.376883927648193    0.145483845744499    0.375878424358334  0.0000
  O2     O2        0.994507535720847    0.988839583664347    0.496470100605721  0.0000
  O2     O2        0.500722271385785    0.018788983764112    0.497016806002000  0.0000
  O2     O2        0.983962202697772    0.963461584515342    0.248301589725586  0.0000
  O3     O3        0.495009297238075    0.021823531161307    0.248741487335046  0.0000
  O2     O2        0.000788129777439    0.981925149779685    0.745006478651503  0.0000
  O2     O2        0.469974680104970    0.992211100230186    0.738341956931692  0.0000
  O3     O3        0.632885022054643    0.152093273827504    0.135084656458393  0.0000
  O2     O2        0.867404020748973    0.902863993371547    0.085022209762944  0.0000
  O2     O2        0.370021142078953    0.132922476042531    0.896486226418842  0.0000
  O3     O3        0.123568720726576    0.853201895703003    0.866048953061012  0.0000
  O2     O2        0.415131726018190    0.798922332909053    0.925111115712584  0.0000
  O2     O2        0.094842244847838    0.189720184568698    0.880540642467315  0.0000
  O3     O3        0.594633579199914    0.790524518576434    0.118586259319338  0.0000
  O3     O3        0.927869471264861    0.217080096690765    0.103963915355207  0.0000
  O3     O3        0.510354829014190    0.060474081081453    0.980443378222055  0.0000
  O2     O2        0.007899902833850    0.949303867490116    0.999058722910052  0.0000
  O2     O2        0.129822328834998    0.509373569585112    0.295934150378886  0.0000
  O2     O2        0.358327465059298    0.477388024373635    0.321442194162048  0.0000
  O2     O2        0.858489358460044    0.507928360299248    0.686566387521338  0.0000
  O3     O3        0.624105979077397    0.442170411535034    0.711456054565711  0.0000
  O2     O2        0.236209625013580    0.261030381068917    0.318275741567724  0.0000
  O2     O2        0.250639880481174    0.723652208572389    0.334985772330577  0.0000
  O2     O2        0.750650629184682    0.256743635587614    0.682043254786803  0.0000
  O3     O3        0.735777105630312    0.709633270162218    0.659712808156855  0.0000
  O2     O2        0.132830203077668    0.250981842250456    0.124708797379370  0.0000
  O2     O2        0.349611509767608    0.720664524563948    0.143093034524368  0.0000
  O3     O3        0.862175382533194    0.263336769897586    0.863192147815180  0.0000
  O3     O3        0.632982593981208    0.737762633036412    0.878049619958222  0.0000
  O2     O2        0.829295966587814    0.765066387936107    0.855003247475653  0.0000
  O2     O2        0.668973058461536    0.212723616762170    0.889931619622065  0.0000
  O3     O3        0.157107194598482    0.776045463058113    0.136927139361015  0.0000
  O2     O2        0.341670645917809    0.231419855136545    0.136542709611619  0.0000
  O2     O2        0.632619498857399    0.473701232627306    0.043838325314588  0.0000
  O3     O3        0.877360288752582    0.557711966530769    0.037873234974928  0.0000
  O2     O2        0.370045035980864    0.473226249647710    0.962757603914717  0.0000
  O3     O3        0.124169008026610    0.509159017249399    0.956085894737895  0.0000
  O3     O3        0.764588010812078    0.300827137932085    0.082180740502798  0.0000
  O2     O2        0.741541849181866    0.717496614368637    0.058305121210977  0.0000
  O2     O2        0.239695782927938    0.287760570310088    0.946862467050096  0.0000
  O3     O3        0.263708917505763    0.717127232635165    0.933334034887360  0.0000
