data_c01188.vasp
_audit_creation_method             Generated by GULP
_audit_author_name                 Salvador R. G. Balestra
_symmetry_space_group_name_H-M     'P 1             '
_symmetry_Int_Tables_number        1

loop_
_symmetry_equiv_pos_site_id
_symmetry_equiv_pos_as_xyz
_cell_length_a                       17.1760
_cell_length_b                        7.6260
_cell_length_c                       10.2301
_cell_angle_alpha                   89.9107
_cell_angle_beta                    91.0175
_cell_angle_gamma                   88.6125

loop_
_atom_site_label
_atom_site_type_symbol
_atom_site_fract_x
_atom_site_fract_y
_atom_site_fract_z
_atom_site_charge
  Ge     Ge        0.160189999999943    0.293909999999983    0.273440000000051  0.0000
  Ge     Ge        0.361361411340658    0.653266100447801    0.276228264718856  0.0000
  Ge     Ge        0.844445050639389    0.674363466080745    0.701783775392240  0.0000
  Ge     Ge        0.154786042242493    0.310926742259331    0.955201538548925  0.0000
  Si     Si        0.058957401202115    0.989941693901669    0.369423994365012  0.0000
  Si     Si        0.464329489649054    0.958998302742377    0.360594006611002  0.0000
  Si     Si        0.959825859500961    0.958097724588738    0.623646799966706  0.0000
  Si     Si        0.554363291561567    0.977305514376668    0.627704872808332  0.0000
  Si     Si        0.567878002651465    0.980360269916567    0.115198504012000  0.0000
  Si     Si        0.952416923977769    0.969371684152307    0.119859974120680  0.0000
  Si     Si        0.449747406310582    0.974701806884266    0.878921406837396  0.0000
  Si     Si        0.061712545179495    0.992656080940041    0.878340326237216  0.0000
  Si     Si        0.850686328458254    0.262187535338945    0.711036914323647  0.0000
  Si     Si        0.661957754804081    0.666130956537994    0.702717046630903  0.0000
  Si     Si        0.669685667613725    0.261532071730851    0.711624169140928  0.0000
  Si     Si        0.179219997801253    0.702175975491530    0.277982037168053  0.0000
  Si     Si        0.340473890939611    0.248547569440712    0.265519497290026  0.0000
  Si     Si        0.672658793314021    0.270772860795749    0.015841967075537  0.0000
  Si     Si        0.846328773375724    0.681339274827451    0.012238054395245  0.0000
  Si     Si        0.334699623344755    0.270046549315608    0.955244484548475  0.0000
  Si     Si        0.179035856930046    0.711510639782911    0.969227349401226  0.0000
  Si     Si        0.357881101991369    0.661479811019949    0.965589943278088  0.0000
  Si     Si        0.666979004008325    0.668965350184072    0.009920634879003  0.0000
  Si     Si        0.852908246000608    0.278546268529668    0.014714101039097  0.0000
  O3     O3        0.093637222514621    0.181003077280221    0.362853012014435  0.0000
  O3     O3        0.430518449297936    0.766202120695601    0.363211569189466  0.0000
  O2     O2        0.904154597119212    0.131824635505170    0.627135579487678  0.0000
  O2     O2        0.598783797472564    0.787848768530854    0.625130239135241  0.0000
  O3     O3        0.904118997931927    0.795159331156509    0.606360077215091  0.0000
  O2     O2        0.617835542332104    0.129662868093208    0.628227957550793  0.0000
  O2     O2        0.130331349568736    0.850884932913753    0.353514939621010  0.0000
  O2     O2        0.391980193189859    0.088748676608693    0.323907621194409  0.0000
  O2     O2        0.020756132930641    0.966555645741672    0.509083451822508  0.0000
  O2     O2        0.499691930345112    0.004311722424853    0.501690376293716  0.0000
  O2     O2        0.991739920426213    0.957485311402119    0.261623966803961  0.0000
  O2     O2        0.533530241963550    0.979280027829946    0.258647703716209  0.0000
  O2     O2        0.009143240036688    0.933940976449664    0.757279534682162  0.0000
  O2     O2        0.500837395303942    0.995384672843159    0.752683618442795  0.0000
  O2     O2        0.627012866065173    0.140416873871740    0.107705862035792  0.0000
  O2     O2        0.894090991773865    0.808050350012957    0.107072442287742  0.0000
  O2     O2        0.381657991941142    0.122431420679430    0.876108782757637  0.0000
  O2     O2        0.140532698048636    0.872375572073767    0.887952240674136  0.0000
  O2     O2        0.413406224867007    0.781303604316243    0.878683203941372  0.0000
  O3     O3        0.087544909868873    0.191773752996010    0.865600320062029  0.0000
  O2     O2        0.612013049989550    0.795200853256484    0.093242439845151  0.0000
  O2     O2        0.906736735067480    0.156474538786864    0.107885743048537  0.0000
  O2     O2        0.499746103857201    0.009970330734300    0.009180765271638  0.0000
  O2     O2        0.017172750905325    0.953072981769188    0.011031420270238  0.0000
  O3     O3        0.141744408296691    0.514990063411246    0.298197919262180  0.0000
  O3     O3        0.380578352502122    0.431464783908614    0.295600395015610  0.0000
  O3     O3        0.872382031758675    0.458435989109949    0.680332546312197  0.0000
  O2     O2        0.643320683237732    0.461630547048189    0.679395586488172  0.0000
  O3     O3        0.254967492772702    0.246031987819998    0.324797623472135  0.0000
  O3     O3        0.268045268390083    0.697939726147355    0.328922192637242  0.0000
  O2     O2        0.759924399107718    0.231642578893087    0.675238326863016  0.0000
  O3     O3        0.747923642571724    0.703183467516993    0.655046193127553  0.0000
  O1     O1        0.145541303449186    0.241874370131498    0.112905199580779  0.0000
  O3     O3        0.371785137203081    0.713650014916199    0.114941882033030  0.0000
  O2     O2        0.865678111392462    0.220803254699047    0.864958899739332  0.0000
  O2     O2        0.656886726685437    0.711826589913640    0.856573153043698  0.0000
  O3     O3        0.855080695019551    0.737260657753378    0.863070162335239  0.0000
  O2     O2        0.659313084790442    0.219488047739052    0.864713307134329  0.0000
  O2     O2        0.180323117185292    0.748731203195379    0.124007183797754  0.0000
  O2     O2        0.327318795177756    0.227528081829227    0.109101983243052  0.0000
  O2     O2        0.642530004337071    0.469991398219967    0.039533243360648  0.0000
  O2     O2        0.877146618703773    0.480271294893523    0.032238732168091  0.0000
  O2     O2        0.378152112265902    0.456061728802494    0.940459736451784  0.0000
  O3     O3        0.134063927011686    0.533441930855439    0.941459593474516  0.0000
  O2     O2        0.763699730265546    0.254368267090763    0.053199928838831  0.0000
  O2     O2        0.756195040088388    0.696315892218766    0.052522287515451  0.0000
  O3     O3        0.248095657006282    0.279526816149127    0.897524480151241  0.0000
  O2     O2        0.267899534612254    0.693919018827765    0.922961285922665  0.0000
