data_c01118.vasp
_audit_creation_method             Generated by GULP
_audit_author_name                 Salvador R. G. Balestra
_symmetry_space_group_name_H-M     'P 1             '
_symmetry_Int_Tables_number        1

loop_
_symmetry_equiv_pos_site_id
_symmetry_equiv_pos_as_xyz
_cell_length_a                       16.9856
_cell_length_b                        7.6270
_cell_length_c                       10.3296
_cell_angle_alpha                   90.2683
_cell_angle_beta                    90.2426
_cell_angle_gamma                   90.5584

loop_
_atom_site_label
_atom_site_type_symbol
_atom_site_fract_x
_atom_site_fract_y
_atom_site_fract_z
_atom_site_charge
  Ge     Ge        0.556730000000016    0.000000000000000    0.122129999999970  0.0000
  Ge     Ge        0.653800270605746    0.674494712241305    0.706433479570528  0.0000
  Ge     Ge        0.830076339360056    0.730790137089947    0.021202107713712  0.0000
  Ge     Ge        0.332789494289693    0.295914865659682    0.970948478626258  0.0000
  Si     Si        0.053180815103312    0.017355490626225    0.369012477833475  0.0000
  Si     Si        0.452521391245529    0.012049224250533    0.377185460564552  0.0000
  Si     Si        0.954667780225392    0.010593693148135    0.628499693925582  0.0000
  Si     Si        0.551272218592143    0.984565657091256    0.631542399414054  0.0000
  Si     Si        0.942589585475057    0.015742082292327    0.121249559801319  0.0000
  Si     Si        0.444538089957189    0.013753635490278    0.880576159270964  0.0000
  Si     Si        0.053167416840459    0.007228739205219    0.885190921028192  0.0000
  Si     Si        0.157761827387677    0.325052399192434    0.285435711301488  0.0000
  Si     Si        0.348328181644365    0.705424538894543    0.279558354773347  0.0000
  Si     Si        0.852551380534303    0.316021948658266    0.720350784269840  0.0000
  Si     Si        0.836254020182426    0.719726063395957    0.711140396704661  0.0000
  Si     Si        0.670639468770442    0.266839043224770    0.717744942143657  0.0000
  Si     Si        0.166581876149088    0.726363404858720    0.284026448511600  0.0000
  Si     Si        0.337976874337698    0.298883570060966    0.278938155769491  0.0000
  Si     Si        0.673167048037149    0.282115972505990    0.017762702352175  0.0000
  Si     Si        0.165133166011575    0.723465788506365    0.982425618929548  0.0000
  Si     Si        0.348796770116918    0.700169335298053    0.979770370814761  0.0000
  Si     Si        0.148950093097326    0.326686279311390    0.980844456893545  0.0000
  Si     Si        0.647352487136568    0.677657816424011    0.015688594938750  0.0000
  Si     Si        0.856265675518353    0.333196919072949    0.019163826342158  0.0000
  O2     O2        0.099569464191289    0.202823896559984    0.367873204602579  0.0000
  O2     O2        0.406638218424113    0.825488794694844    0.364683907975671  0.0000
  O2     O2        0.909962558709834    0.196169976368343    0.635403730999841  0.0000
  O3     O3        0.586515845291733    0.792391526975229    0.617407242937666  0.0000
  O2     O2        0.892609567174466    0.850089453013565    0.631127496650787  0.0000
  O2     O2        0.625784229465995    0.119092254991451    0.633187726057419  0.0000
  O2     O2        0.115990047159872    0.859942697824204    0.368823044154982  0.0000
  O2     O2        0.392054080175466    0.172412904615097    0.364041919053585  0.0000
  O2     O2        0.001109812612953    0.003450779478018    0.495424723779421  0.0000
  O2     O2        0.490381737351119    0.027093243459423    0.518648335366751  0.0000
  O2     O2        0.996665591979035    0.000432815532572    0.245885946404528  0.0000
  O3     O3        0.522875669330233    0.023280298486203    0.276730957284516  0.0000
  O2     O2        0.017693547271434    0.991939870726188    0.743041237069285  0.0000
  O2     O2        0.505465659709986    0.007125936375920    0.765424349586079  0.0000
  O3     O3        0.637753573681606    0.138752732127878    0.111047992004558  0.0000
  O3     O3        0.870064241871717    0.883001789772871    0.125997901521445  0.0000
  O3     O3        0.377946221851987    0.158319210230025    0.863462699906618  0.0000
  O2     O2        0.123857133351173    0.868244373133134    0.894638905852228  0.0000
  O2     O2        0.402919585398610    0.823134555533534    0.891920406506612  0.0000
  O2     O2        0.084571000742260    0.205206041360132    0.909015404227705  0.0000
  O3     O3        0.582598904153641    0.785052591775706    0.093725006742700  0.0000
  O2     O2        0.911018162814194    0.214160501851177    0.109702492183175  0.0000
  O3     O3        0.487915627759174    0.070259158184890    0.012714188000972  0.0000
  O2     O2        0.988808736167679    0.955073641715911    0.991935488483445  0.0000
  O2     O2        0.138081783964961    0.528090506551352    0.313719462824372  0.0000
  O2     O2        0.367240306824135    0.500263191427154    0.298072305922398  0.0000
  O2     O2        0.870078848074197    0.521679760345939    0.699151767348096  0.0000
  O3     O3        0.633495694169045    0.453970221447749    0.688484893013059  0.0000
  O2     O2        0.247512772072129    0.284393390155860    0.325773768375767  0.0000
  O2     O2        0.258725949426654    0.745745546639050    0.319958925350349  0.0000
  O2     O2        0.762760063372690    0.271850408379795    0.679631171651163  0.0000
  O3     O3        0.748515542569238    0.719288756885164    0.654637929141083  0.0000
  O2     O2        0.146962172943498    0.283580863197315    0.133568438355241  0.0000
  O2     O2        0.362882246537990    0.755601679830750    0.129816395415851  0.0000
  O2     O2        0.867845023851668    0.270022150562800    0.870608238515569  0.0000
  O3     O3        0.644281730454012    0.734736107089383    0.866281256264849  0.0000
  O3     O3        0.833200300100206    0.783357241278817    0.859279883412737  0.0000
  O2     O2        0.663854519127385    0.216961691863808    0.869124586988586  0.0000
  O2     O2        0.155004759287281    0.772589527382416    0.133225650565856  0.0000
  O3     O3        0.343412112848349    0.237723584265574    0.131317339642781  0.0000
  O2     O2        0.629487526437098    0.469286702733698    0.029655356207751  0.0000
  O3     O3        0.878703709343628    0.533517442689834    0.039849857582991  0.0000
  O3     O3        0.372693172629369    0.503217659282328    0.953736228085674  0.0000
  O2     O2        0.127797802120187    0.530654804303343    0.956157047694606  0.0000
  O2     O2        0.764467074211968    0.310142347602250    0.054520968392845  0.0000
  O3     O3        0.733732510784848    0.719341493848279    0.070803900371487  0.0000
  O3     O3        0.234859209271311    0.289863738776215    0.927811386954004  0.0000
  O2     O2        0.256805597112711    0.722987195296855    0.945453945505101  0.0000
