data_c01187.vasp
_audit_creation_method             Generated by GULP
_audit_author_name                 Salvador R. G. Balestra
_symmetry_space_group_name_H-M     'P 1             '
_symmetry_Int_Tables_number        1

loop_
_symmetry_equiv_pos_site_id
_symmetry_equiv_pos_as_xyz
_cell_length_a                       17.1873
_cell_length_b                        7.6364
_cell_length_c                       10.1976
_cell_angle_alpha                   91.0927
_cell_angle_beta                    89.7918
_cell_angle_gamma                   88.5056

loop_
_atom_site_label
_atom_site_type_symbol
_atom_site_fract_x
_atom_site_fract_y
_atom_site_fract_z
_atom_site_charge
  Ge     Ge        0.160189999999943    0.293909999999983    0.273440000000051  0.0000
  Ge     Ge        0.360885121738662    0.654134989765366    0.267123434525797  0.0000
  Ge     Ge        0.850342884360341    0.663882217989991    0.699736411299566  0.0000
  Ge     Ge        0.362548808271158    0.628095198175348    0.948605206381163  0.0000
  Si     Si        0.058938800714919    0.990051028575897    0.360792411601514  0.0000
  Si     Si        0.463337993368899    0.961071279387764    0.351668041301507  0.0000
  Si     Si        0.965197430938801    0.948280097409548    0.620453660986571  0.0000
  Si     Si        0.559950952612395    0.970078042473734    0.611187330788376  0.0000
  Si     Si        0.566195160110815    0.977308213052462    0.095332740528239  0.0000
  Si     Si        0.952281330085688    0.962614120634419    0.117425385197594  0.0000
  Si     Si        0.453829562356020    0.941620401506686    0.854698060640055  0.0000
  Si     Si        0.067095375755908    0.962764597527880    0.878198562093217  0.0000
  Si     Si        0.853012603716712    0.252046330115360    0.702758894416453  0.0000
  Si     Si        0.667459771488642    0.663109330055534    0.702042099376221  0.0000
  Si     Si        0.673054956962778    0.258271042822243    0.705354485111797  0.0000
  Si     Si        0.180559958048923    0.696956321535765    0.261912099511765  0.0000
  Si     Si        0.343066953768752    0.246150698155738    0.274355614819286  0.0000
  Si     Si        0.672994743642956    0.268453473253397    0.011596166951202  0.0000
  Si     Si        0.849109676961374    0.670676130157011    0.011028152199650  0.0000
  Si     Si        0.340411292341421    0.226173386339454    0.965865496845516  0.0000
  Si     Si        0.182747019097361    0.666647119883198    0.950311421372710  0.0000
  Si     Si        0.160951447693269    0.276092064371866    0.961935376471965  0.0000
  Si     Si        0.669323808251706    0.665486114848401    0.010137999640492  0.0000
  Si     Si        0.852511218716343    0.268835678406770    0.008698996491419  0.0000
  O3     O3        0.092675056063274    0.182552013607912    0.362026387283466  0.0000
  O3     O3        0.426462897300694    0.772509332515212    0.357858686656715  0.0000
  O2     O2        0.907466140814860    0.118635958093588    0.618663393620924  0.0000
  O2     O2        0.605885717279074    0.784241490272060    0.625224155750003  0.0000
  O3     O3        0.911977662242806    0.781234329642717    0.605344869471649  0.0000
  O2     O2        0.619310142045392    0.128531733820839    0.624377091553783  0.0000
  O2     O2        0.130188724076750    0.859235451295990    0.320164606047788  0.0000
  O2     O2        0.392494423148856    0.104740270239970    0.356755956261347  0.0000
  O2     O2        0.027982555329074    0.950135459361423    0.504972513083836  0.0000
  O2     O2        0.523253894334598    0.985628004611526    0.469000574420672  0.0000
  O2     O2        0.986976058941239    0.967444223824149    0.262278058008546  0.0000
  O2     O2        0.510677692217174    0.990160909666880    0.218884933868142  0.0000
  O2     O2        0.011106179747630    0.939614318880388    0.756382897570183  0.0000
  O2     O2        0.489611663023259    0.987867235225544    0.714763857581295  0.0000
  O2     O2        0.623548105600253    0.141034082362764    0.099918839095168  0.0000
  O2     O2        0.896215432023078    0.797387723355281    0.107422692262767  0.0000
  O2     O2        0.377268363342991    0.063572894982122    0.883230284253706  0.0000
  O2     O2        0.133524300135428    0.811110312191092    0.872383997659561  0.0000
  O3     O3        0.427840803007409    0.742315059668818    0.855360558446842  0.0000
  O2     O2        0.105699864629704    0.153325589571237    0.873964073158121  0.0000
  O2     O2        0.615714971223493    0.795203133619312    0.098413734110183  0.0000
  O2     O2        0.905758711472314    0.145530572585423    0.097633006917296  0.0000
  O2     O2        0.517171862395692    0.986896899191693    0.963553816502464  0.0000
  O2     O2        0.021057889113758    0.937780985909708    0.012816896170278  0.0000
  O3     O3        0.140503492521673    0.515782202512660    0.293603385775124  0.0000
  O3     O3        0.380281133371394    0.434369359281390    0.290480253223085  0.0000
  O3     O3        0.876083183782502    0.446991552646135    0.673616118517040  0.0000
  O2     O2        0.648635347037867    0.458980889684058    0.675521753946858  0.0000
  O3     O3        0.254461192319400    0.252822500383858    0.324071968226432  0.0000
  O3     O3        0.266667996111088    0.701318018975692    0.320133529561850  0.0000
  O2     O2        0.762900795513217    0.223456277372774    0.664161345804013  0.0000
  O3     O3        0.754282554799308    0.699065530651290    0.656137668248097  0.0000
  O3     O3        0.147654455160590    0.229492660798635    0.112014462857166  0.0000
  O1     O1        0.373797636464618    0.703386068284306    0.105925092225717  0.0000
  O2     O2        0.863991638559416    0.212467986168333    0.856986803211697  0.0000
  O2     O2        0.659348392467109    0.708103643364804    0.857040065523403  0.0000
  O3     O3        0.861155479537695    0.725378510964786    0.862337010729615  0.0000
  O2     O2        0.663179127512728    0.219199369890360    0.858795317644910  0.0000
  O2     O2        0.192100996169616    0.711442613735760    0.104688474297014  0.0000
  O2     O2        0.342474915481283    0.188312168427663    0.120739972060534  0.0000
  O2     O2        0.643283369746758    0.468249757220737    0.038336509184594  0.0000
  O2     O2        0.878016603413404    0.469255315387433    0.029605822117911  0.0000
  O3     O3        0.383686083884980    0.404874826338362    0.938427084842789  0.0000
  O2     O2        0.139856379361333    0.480004801901712    0.935020745509297  0.0000
  O2     O2        0.763159253802300    0.247858325846865    0.051250909578524  0.0000
  O2     O2        0.758497204142877    0.689345273100714    0.050178208541707  0.0000
  O2     O2        0.250851860955256    0.243135204373603    0.921609540441927  0.0000
  O3     O3        0.268570003462315    0.657332440251032    0.891284904555024  0.0000
