data_c01178.vasp
_audit_creation_method             Generated by GULP
_audit_author_name                 Salvador R. G. Balestra
_symmetry_space_group_name_H-M     'P 1             '
_symmetry_Int_Tables_number        1

loop_
_symmetry_equiv_pos_site_id
_symmetry_equiv_pos_as_xyz
_cell_length_a                       17.1427
_cell_length_b                        7.5998
_cell_length_c                       10.2990
_cell_angle_alpha                   88.8541
_cell_angle_beta                    89.5905
_cell_angle_gamma                   89.9642

loop_
_atom_site_label
_atom_site_type_symbol
_atom_site_fract_x
_atom_site_fract_y
_atom_site_fract_z
_atom_site_charge
  Ge     Ge        0.160189999999943    0.293909999999983    0.273440000000051  0.0000
  Ge     Ge        0.361393875394237    0.666928605775787    0.268384260316809  0.0000
  Ge     Ge        0.859879935751427    0.305767896562460    0.696667850366128  0.0000
  Ge     Ge        0.659638205090844    0.648081659915764    0.017602817733443  0.0000
  Si     Si        0.056050142178959    0.982165957212259    0.357214899357404  0.0000
  Si     Si        0.465145550778265    0.975371060228641    0.354406727239775  0.0000
  Si     Si        0.963719598796665    0.997042168003498    0.617672245165603  0.0000
  Si     Si        0.559855313339487    0.990771265760205    0.615361562980224  0.0000
  Si     Si        0.565218057575169    0.965262715036079    0.101108859731122  0.0000
  Si     Si        0.953672404588575    0.973437509663567    0.103825928075154  0.0000
  Si     Si        0.452181281045172    0.981495503715665    0.862952710721312  0.0000
  Si     Si        0.069207345567908    0.989019543768181    0.866344501001134  0.0000
  Si     Si        0.663380486925490    0.682553646362509    0.709424932314494  0.0000
  Si     Si        0.842018085162920    0.715200507928800    0.714639780362475  0.0000
  Si     Si        0.677411039917969    0.276989241956957    0.697487462912870  0.0000
  Si     Si        0.177676657908450    0.704332036767866    0.269340301958726  0.0000
  Si     Si        0.343607080594436    0.256092257667784    0.269909276893987  0.0000
  Si     Si        0.679669273355920    0.246306130409346    0.001863388579198  0.0000
  Si     Si        0.841302461142617    0.684180731657167    0.019853894913486  0.0000
  Si     Si        0.341350724022897    0.266784907471013    0.964963159555025  0.0000
  Si     Si        0.179714004866476    0.699628625184766    0.964331978256550  0.0000
  Si     Si        0.359287643776705    0.666482045553548    0.960605272531973  0.0000
  Si     Si        0.161891619476780    0.300105009756443    0.965325071169892  0.0000
  Si     Si        0.859411300323749    0.287926137218895    0.005073160643370  0.0000
  O3     O3        0.092649722860805    0.175097498207605    0.362471447877761  0.0000
  O3     O3        0.429213658696932    0.781538050329899    0.354708839388191  0.0000
  O3     O3        0.928299972567995    0.191656935741199    0.608287927282898  0.0000
  O2     O2        0.605156763934597    0.805010860648917    0.625441074259489  0.0000
  O2     O2        0.889604548037355    0.871094734253052    0.644825480176190  0.0000
  O2     O2        0.621045412298471    0.151070783964461    0.618154693257526  0.0000
  O2     O2        0.128619705613387    0.848258950224628    0.346709012248536  0.0000
  O2     O2        0.392274009667637    0.109358595594498    0.348316808569001  0.0000
  O2     O2        0.005665482141432    0.941722465292761    0.485574360798581  0.0000
  O2     O2        0.515787358700450    0.004906497774834    0.480488822379951  0.0000
  O2     O2        0.999634618507826    0.957807638232428    0.236355433794088  0.0000
  O2     O2        0.521368274154963    0.014839564991056    0.231984332791328  0.0000
  O2     O2        0.027695651020565    0.975998995109875    0.729496171433355  0.0000
  O2     O2        0.495081039846712    0.009453925840575    0.726843858221031  0.0000
  O2     O2        0.642859769598451    0.083923355598141    0.082420609144471  0.0000
  O2     O2        0.889362016378082    0.819689097334390    0.105010844430352  0.0000
  O2     O2        0.384819401813690    0.128142730976723    0.874983750031540  0.0000
  O2     O2        0.136971944713568    0.842272784126268    0.873473177444887  0.0000
  O2     O2        0.415168960977550    0.785633723957902    0.868074007994046  0.0000
  O2     O2        0.105217864217316    0.184638171834278    0.876606826024819  0.0000
  O3     O3        0.592475640759058    0.764153557624666    0.107052805739021  0.0000
  O2     O2        0.913483680640996    0.164988000776989    0.095672851234641  0.0000
  O2     O2        0.511387702795071    0.010903252509351    0.979029682980325  0.0000
  O2     O2        0.009713268741295    0.943478172927732    0.981921927094935  0.0000
  O3     O3        0.141739160917135    0.513367262916101    0.296335384607371  0.0000
  O3     O3        0.379742919339234    0.446408326328308    0.292310042144688  0.0000
  O3     O3        0.878374261755189    0.528317777148650    0.680659299851214  0.0000
  O2     O2        0.645975207860874    0.477326981739429    0.684118083690422  0.0000
  O3     O3        0.254939788054810    0.250523116047790    0.319017397773784  0.0000
  O3     O3        0.266602526247564    0.710477166129034    0.315001970081553  0.0000
  O3     O3        0.765505364273614    0.267077189510001    0.646371251748868  0.0000
  O2     O2        0.752503902664741    0.724576185006204    0.666692686022617  0.0000
  O3     O3        0.148180974399031    0.239440541330089    0.112840484338092  0.0000
  O3     O3        0.374076755694386    0.724850376744517    0.106532237844226  0.0000
  O3     O3        0.873053780297282    0.239230692240842    0.856580763049460  0.0000
  O3     O3        0.650111342635415    0.723408155602991    0.859340963023024  0.0000
  O2     O2        0.840925542923668    0.744330185172933    0.869063964754418  0.0000
  O2     O2        0.677031085535152    0.214047208419009    0.847850245718568  0.0000
  O2     O2        0.175176461815438    0.749993893121973    0.115048762730177  0.0000
  O2     O2        0.345250843893249    0.212455584112879    0.116422312365946  0.0000
  O3     O3        0.636686113290498    0.427713996540557    0.032640242098825  0.0000
  O2     O2        0.881116975569253    0.490918932488815    0.030948216123700  0.0000
  O2     O2        0.379727802250748    0.460283436548995    0.943845267380939  0.0000
  O2     O2        0.141504350846941    0.506924727026676    0.945841246366368  0.0000
  O2     O2        0.769310813302156    0.259445069871125    0.044544670013176  0.0000
  O3     O3        0.753536192768053    0.678302752091888    0.071419461845195  0.0000
  O2     O2        0.251368698524004    0.269420493627395    0.922505490727717  0.0000
  O2     O2        0.269729463488992    0.697484108110777    0.920663146142633  0.0000
