data_c01128.vasp
_audit_creation_method             Generated by GULP
_audit_author_name                 Salvador R. G. Balestra
_symmetry_space_group_name_H-M     'P 1             '
_symmetry_Int_Tables_number        1

loop_
_symmetry_equiv_pos_site_id
_symmetry_equiv_pos_as_xyz
_cell_length_a                       16.9998
_cell_length_b                        7.6116
_cell_length_c                       10.3305
_cell_angle_alpha                   90.1857
_cell_angle_beta                    89.6165
_cell_angle_gamma                   89.8178

loop_
_atom_site_label
_atom_site_type_symbol
_atom_site_fract_x
_atom_site_fract_y
_atom_site_fract_z
_atom_site_charge
  Ge     Ge        0.556730000000016    0.000000000000000    0.122129999999970  0.0000
  Ge     Ge        0.667258390804334    0.708288395646177    0.705667880378529  0.0000
  Ge     Ge        0.349551561792820    0.311582924898920    0.961576185889130  0.0000
  Ge     Ge        0.828232261171422    0.259327861463873    0.018010128598255  0.0000
  Si     Si        0.049271840267312    0.979821832871986    0.362588360258318  0.0000
  Si     Si        0.447646819786522    0.994125224327621    0.372024865360872  0.0000
  Si     Si        0.950827840254122    0.972532528212343    0.622551456496900  0.0000
  Si     Si        0.546611071842600    0.989458059889525    0.626094217577291  0.0000
  Si     Si        0.940132352436672    0.976285201503173    0.115722914137411  0.0000
  Si     Si        0.446014081505405    0.989819847032402    0.879357697333838  0.0000
  Si     Si        0.051001599535921    0.995992250425109    0.877522455267399  0.0000
  Si     Si        0.163846178242232    0.272773972041561    0.268634477550247  0.0000
  Si     Si        0.334067576378375    0.702938106405944    0.271688124279011  0.0000
  Si     Si        0.831620171784639    0.256099123032928    0.709944154237850  0.0000
  Si     Si        0.851462191523945    0.660498373479604    0.705960958043550  0.0000
  Si     Si        0.650530416545505    0.297915081993478    0.712504857032537  0.0000
  Si     Si        0.153357904452839    0.675689328496207    0.277340761998136  0.0000
  Si     Si        0.344933038870912    0.296877196846636    0.268685063082923  0.0000
  Si     Si        0.645669528331670    0.321778995938464    0.014356261336011  0.0000
  Si     Si        0.853445997687340    0.658253864633498    0.007906049290604  0.0000
  Si     Si        0.148343596912626    0.681104776355429    0.976155000355058  0.0000
  Si     Si        0.330182010961625    0.716415715278954    0.969062526944312  0.0000
  Si     Si        0.164205213034432    0.283193013454473    0.965041485365909  0.0000
  Si     Si        0.671842754650211    0.719440321694999    0.010275889535612  0.0000
  O2     O2        0.111210353404103    0.138789696021234    0.350217199536162  0.0000
  O2     O2        0.387154305683464    0.832488489445449    0.356064754446589  0.0000
  O2     O2        0.880919021272413    0.116764565665096    0.624402424761104  0.0000
  O3     O3        0.612550761256837    0.841697285171728    0.606611070761006  0.0000
  O2     O2        0.914117501876861    0.776565214486694    0.625257583793391  0.0000
  O2     O2        0.590385111823856    0.177101458605247    0.633260540059607  0.0000
  O2     O2        0.096144783498060    0.795126282997932    0.364938039491183  0.0000
  O2     O2        0.402744451093777    0.179130787376546    0.354609143003181  0.0000
  O2     O2        0.000891161967326    0.999759090273918    0.493612181641820  0.0000
  O2     O2        0.481808001398421    0.991263226742170    0.515544711186125  0.0000
  O2     O2        0.988673195365238    0.985550347252085    0.245782295243187  0.0000
  O3     O3        0.520726035186963    0.975642723683989    0.275685242305952  0.0000
  O2     O2        0.009020041544155    0.003188906182607    0.741108230637328  0.0000
  O2     O2        0.500984687515154    0.943243037597346    0.758523966499809  0.0000
  O3     O3        0.581620461922986    0.217525924726128    0.096272733371121  0.0000
  O2     O2        0.910660386061893    0.777788410293363    0.093514874415681  0.0000
  O3     O3        0.417336768286040    0.190543276442985    0.874362035919080  0.0000
  O2     O2        0.089821312740134    0.804004979717840    0.896225320356718  0.0000
  O2     O2        0.367413260712653    0.868928295859426    0.881845499737348  0.0000
  O2     O2        0.117044906688251    0.146275577909780    0.877758752151168  0.0000
  O3     O3        0.637131567713603    0.861426824193109    0.107620441746697  0.0000
  O3     O3        0.867137773401347    0.107708451323960    0.122232519391108  0.0000
  O3     O3        0.489687725310902    0.935196969841624    0.009327453277454  0.0000
  O2     O2        0.990510551334858    0.042919451524876    0.992428546846279  0.0000
  O2     O2        0.134600618661632    0.470709319358617    0.299778538750396  0.0000
  O2     O2        0.363328163690607    0.502839755475751    0.291415758506771  0.0000
  O2     O2        0.866447294346684    0.451647782504782    0.687707395654203  0.0000
  O3     O3        0.630731380633605    0.498657691608183    0.687446223879519  0.0000
  O2     O2        0.254977197010819    0.254293377942287    0.308547955361125  0.0000
  O2     O2        0.243159837510571    0.717743770655251    0.315843326620586  0.0000
  O2     O2        0.740089743533627    0.254119517643549    0.667526388617272  0.0000
  O3     O3        0.764826493845852    0.707530734404511    0.658818696905580  0.0000
  O2     O2        0.158231822667074    0.230328055454145    0.116267272335482  0.0000
  O2     O2        0.341008646723687    0.756502663813990    0.121781778940890  0.0000
  O3     O3        0.835765410734647    0.197148521249758    0.858002382026679  0.0000
  O3     O3        0.662898431536040    0.783878159595458    0.863299835961716  0.0000
  O2     O2        0.862491543453522    0.709301028843553    0.856897991976878  0.0000
  O2     O2        0.641620760766842    0.255597823502751    0.865204102660698  0.0000
  O2     O2        0.138216623270709    0.725673781332098    0.127957556105193  0.0000
  O3     O3        0.361843594176821    0.248009888998185    0.120697320189796  0.0000
  O2     O2        0.628201505577025    0.530362477487871    0.021768085859431  0.0000
  O3     O3        0.875489861895570    0.459133405539562    0.033757972673821  0.0000
  O3     O3        0.369876944001691    0.530351863492317    0.938028558996220  0.0000
  O2     O2        0.127552804829544    0.478381758593616    0.947363243663161  0.0000
  O3     O3        0.731701259476398    0.278381463551388    0.066630092578128  0.0000
  O2     O2        0.762796418443473    0.690879038903364    0.046941502820639  0.0000
  O3     O3        0.253426173520935    0.277185592483147    0.918047117153060  0.0000
  O2     O2        0.238164093448030    0.713319703255097    0.934199828241702  0.0000
