data_c01149.vasp
_audit_creation_method             Generated by GULP
_audit_author_name                 Salvador R. G. Balestra
_symmetry_space_group_name_H-M     'P 1             '
_symmetry_Int_Tables_number        1

loop_
_symmetry_equiv_pos_site_id
_symmetry_equiv_pos_as_xyz
_cell_length_a                       16.9422
_cell_length_b                        7.5917
_cell_length_c                       10.3634
_cell_angle_alpha                   90.4109
_cell_angle_beta                    89.7642
_cell_angle_gamma                   89.6034

loop_
_atom_site_label
_atom_site_type_symbol
_atom_site_fract_x
_atom_site_fract_y
_atom_site_fract_z
_atom_site_charge
  Ge     Ge        0.556730000000016    0.000000000000000    0.122129999999970  0.0000
  Ge     Ge        0.644454252007742    0.332728849436739    0.024651465312122  0.0000
  Ge     Ge        0.352131725377338    0.301000081115081    0.965450402402201  0.0000
  Ge     Ge        0.831677930343651    0.267105452515856    0.025185177946305  0.0000
  Si     Si        0.052259395043430    0.968077816411614    0.366114068395226  0.0000
  Si     Si        0.452603507698421    0.975666746651885    0.372874992396926  0.0000
  Si     Si        0.952777437408147    0.967107516092304    0.624535451474811  0.0000
  Si     Si        0.551630002137793    0.981341813776621    0.629321780969209  0.0000
  Si     Si        0.942428946878573    0.977947251654034    0.119090100310797  0.0000
  Si     Si        0.447690033099897    0.978869521561851    0.878574511015434  0.0000
  Si     Si        0.053073980465392    0.982360113062754    0.880066745395491  0.0000
  Si     Si        0.168012075336048    0.257330257496151    0.272721379926955  0.0000
  Si     Si        0.337033946293526    0.689811687529024    0.276271188888585  0.0000
  Si     Si        0.833988170105397    0.254135384375815    0.717810358053548  0.0000
  Si     Si        0.669838800883340    0.698866523341045    0.705329789606295  0.0000
  Si     Si        0.851333994632082    0.660733487423890    0.708387044817587  0.0000
  Si     Si        0.653291994409423    0.293678967523461    0.717198164971460  0.0000
  Si     Si        0.155610888883398    0.661165155612857    0.282746003170913  0.0000
  Si     Si        0.349833944610471    0.281997858587360    0.270646116489441  0.0000
  Si     Si        0.854542539070283    0.662206433839598    0.005155405145887  0.0000
  Si     Si        0.150063332801557    0.667626650891068    0.982777197460325  0.0000
  Si     Si        0.332637545292847    0.707136191434543    0.975353056685638  0.0000
  Si     Si        0.166452924938495    0.268848607621099    0.970055910360268  0.0000
  Si     Si        0.671327643871495    0.727157344004924    0.004459206152131  0.0000
  O2     O2        0.116325226735344    0.123431471829649    0.355388582935946  0.0000
  O2     O2        0.388929962362976    0.818627301306365    0.364034474122119  0.0000
  O2     O2        0.886087243412029    0.119086218199500    0.632619393121082  0.0000
  O2     O2        0.619169917139844    0.829844573513539    0.615678054367767  0.0000
  O2     O2        0.910988418512787    0.775403267024595    0.621896286738977  0.0000
  O2     O2        0.592680897940403    0.172569573582550    0.636440767094591  0.0000
  O2     O2        0.098002010244766    0.780609979944864    0.370895321773922  0.0000
  O2     O2        0.409665419771703    0.164222661514444    0.353870535816580  0.0000
  O2     O2        0.001616448444266    0.992987467387579    0.494400435317158  0.0000
  O2     O2        0.492413662138729    0.975402288515833    0.511225765553515  0.0000
  O2     O2        0.994580526506472    0.975042104332396    0.245444404042381  0.0000
  O3     O3        0.521852384308445    0.943760690754838    0.270629036694755  0.0000
  O2     O2        0.013409442661465    0.984445394870051    0.741588125638956  0.0000
  O2     O2        0.498665722293040    0.936948120822847    0.752888223389043  0.0000
  O1     O1        0.574929722556242    0.219699280603136    0.110303830985977  0.0000
  O2     O2        0.904169949305289    0.786662038180625    0.098905206543297  0.0000
  O3     O3        0.420037469944959    0.181435506402083    0.877055235420975  0.0000
  O2     O2        0.090876409945969    0.789533790441881    0.902828603659519  0.0000
  O2     O2        0.368535486530805    0.859292547712886    0.886697281317147  0.0000
  O2     O2        0.119869150564251    0.131579927971964    0.881673297068928  0.0000
  O3     O3        0.646132118778134    0.891655899255139    0.089663573949216  0.0000
  O3     O3        0.874726583390755    0.122487257332100    0.131005620813373  0.0000
  O3     O3        0.495293157901652    0.923018824138237    0.003862442498666  0.0000
  O2     O2        0.991557303976514    0.033736570325287    0.992156603272682  0.0000
  O2     O2        0.137922959317772    0.455371501105567    0.304578039468695  0.0000
  O2     O2        0.367195242981178    0.489033841377010    0.292838896808127  0.0000
  O2     O2        0.867393486629236    0.451689564968049    0.695668146329740  0.0000
  O2     O2        0.636642902564152    0.500772281234430    0.690551909693460  0.0000
  O2     O2        0.259845006044601    0.238729424352087    0.311050983735817  0.0000
  O2     O2        0.245853135459198    0.703098786977926    0.320088860518310  0.0000
  O2     O2        0.742716982705484    0.247200948311424    0.672732310855182  0.0000
  O2     O2        0.761835722555289    0.703157059407396    0.664357223599130  0.0000
  O2     O2        0.161197920402743    0.214879831370318    0.120635481215814  0.0000
  O2     O2        0.344228888270583    0.748479300372746    0.127678612786572  0.0000
  O3     O3        0.835615174343906    0.197937502366301    0.865777591747662  0.0000
  O2     O2        0.662737790804593    0.768200069947705    0.852149509100795  0.0000
  O2     O2        0.866563053778351    0.720520881988900    0.856284549566671  0.0000
  O3     O3        0.640404821591481    0.255474648200836    0.866494645259366  0.0000
  O2     O2        0.139685305704075    0.711603990192157    0.134187090350841  0.0000
  O3     O3        0.366200001468981    0.233135898284532    0.122855480803902  0.0000
  O3     O3        0.620905275949086    0.553707578324150    0.035797285542343  0.0000
  O3     O3        0.881601683661573    0.465498442575393    0.029648985016047  0.0000
  O3     O3        0.372782786450562    0.520308677707454    0.944738752373902  0.0000
  O2     O2        0.129330716022731    0.464490970917035    0.953533202598517  0.0000
  O1     O1        0.737081490890978    0.286111582861183    0.079019550216107  0.0000
  O2     O2        0.761249732558615    0.671337672936599    0.035821447010255  0.0000
  O3     O3        0.255836721568900    0.265305627786901    0.922707786651126  0.0000
  O2     O2        0.240104622227933    0.701065244796949    0.941792974577151  0.0000
