data_c01127.vasp
_audit_creation_method             Generated by GULP
_audit_author_name                 Salvador R. G. Balestra
_symmetry_space_group_name_H-M     'P 1             '
_symmetry_Int_Tables_number        1

loop_
_symmetry_equiv_pos_site_id
_symmetry_equiv_pos_as_xyz
_cell_length_a                       17.1556
_cell_length_b                        7.6144
_cell_length_c                       10.2329
_cell_angle_alpha                   89.6890
_cell_angle_beta                    89.5111
_cell_angle_gamma                   90.3609

loop_
_atom_site_label
_atom_site_type_symbol
_atom_site_fract_x
_atom_site_fract_y
_atom_site_fract_z
_atom_site_charge
  Ge     Ge        0.556730000000016    0.000000000000000    0.122129999999970  0.0000
  Ge     Ge        0.667965986723563    0.709531162685335    0.712832642454432  0.0000
  Ge     Ge        0.354390509102847    0.326370063039614    0.974961387017116  0.0000
  Ge     Ge        0.675288554943845    0.719728983781591    0.026355033570183  0.0000
  Si     Si        0.045448408971133    0.984148228125991    0.364714317574566  0.0000
  Si     Si        0.440644829375723    0.004802627437230    0.371365930099254  0.0000
  Si     Si        0.952295729785408    0.981420628356261    0.631905147031642  0.0000
  Si     Si        0.547655490866637    0.992649074179377    0.620155272131655  0.0000
  Si     Si        0.946033787693170    0.984626358727577    0.111658147346542  0.0000
  Si     Si        0.450443098507226    0.008131701721165    0.875880170962563  0.0000
  Si     Si        0.061019776107399    0.005878375060780    0.879147674513341  0.0000
  Si     Si        0.161544736732828    0.280259676163274    0.269245574763990  0.0000
  Si     Si        0.329532325019848    0.712671508144938    0.290486648376418  0.0000
  Si     Si        0.835123472349110    0.266625898979107    0.713529919485363  0.0000
  Si     Si        0.846780812891142    0.667467070269876    0.706025674952774  0.0000
  Si     Si        0.654715989117778    0.291247729374581    0.722887536088982  0.0000
  Si     Si        0.150044034502628    0.682734878765860    0.278441405021298  0.0000
  Si     Si        0.339948914966022    0.309340091192694    0.286777560586664  0.0000
  Si     Si        0.654703872625902    0.311208367540087    0.022471585711350  0.0000
  Si     Si        0.852856125536912    0.664658428578307    0.016812409376675  0.0000
  Si     Si        0.155104719784816    0.691295031434078    0.974905018957107  0.0000
  Si     Si        0.335581244906545    0.730660924018872    0.984325212695392  0.0000
  Si     Si        0.171657371366839    0.294988661608441    0.962428982203406  0.0000
  Si     Si        0.835654383539376    0.271393517997726    0.018447686574799  0.0000
  O2     O2        0.106454216210411    0.143300372821155    0.344746606549970  0.0000
  O2     O2        0.378646600827283    0.842964332327028    0.382268584502708  0.0000
  O2     O2        0.883907915160201    0.126118038745346    0.630847139664865  0.0000
  O3     O3        0.605543435842488    0.830040201234047    0.617522270795072  0.0000
  O2     O2        0.913796549305595    0.787760409138413    0.639770375198959  0.0000
  O2     O2        0.597798479945626    0.171038820826865    0.637678551518971  0.0000
  O2     O2        0.090811344821758    0.799243228558833    0.362590005292182  0.0000
  O2     O2        0.394431681052768    0.188894084273342    0.377692440070982  0.0000
  O2     O2        0.003610957643309    0.003095405931834    0.502869556910348  0.0000
  O2     O2        0.504710593020136    0.000994423266847    0.482530919964872  0.0000
  O2     O2        0.978610159066294    0.988834547111558    0.256673130938173  0.0000
  O3     O3        0.485003990521873    0.983304357668342    0.235538879875985  0.0000
  O2     O2        0.008554330873638    0.014111940784616    0.752700202307219  0.0000
  O2     O2        0.480284221826182    0.973519027554924    0.729479782818865  0.0000
  O3     O3        0.598803234106213    0.206865428574902    0.120332362355428  0.0000
  O2     O2        0.919775607320355    0.786900092689085    0.076888702421725  0.0000
  O3     O3        0.425509694960231    0.209689300716567    0.894958718234107  0.0000
  O2     O2        0.101578302374521    0.815485073525915    0.886846396973537  0.0000
  O2     O2        0.372752661636666    0.891550884001061    0.904127567231170  0.0000
  O2     O2        0.125913423469666    0.158994206409237    0.871200100037081  0.0000
  O1     O1        0.629125765374509    0.849128562729844    0.136861963148187  0.0000
  O2     O2        0.874289194784319    0.120299700165552    0.105634623582475  0.0000
  O3     O3        0.516741792247979    0.947204649073721    0.972595352143017  0.0000
  O2     O2        0.010758254379112    0.047294391717759    0.008032902067877  0.0000
  O2     O2        0.131126114877024    0.476769063964105    0.298572066069074  0.0000
  O2     O2        0.357842576919872    0.513773276166603    0.315871986705487  0.0000
  O2     O2        0.865867998600109    0.462604714701599    0.679019676753189  0.0000
  O3     O3        0.636053915412211    0.493671439292052    0.705246277788173  0.0000
  O2     O2        0.249872830264697    0.263368884772677    0.320001024102979  0.0000
  O2     O2        0.237814508496909    0.726304780456584    0.323945692031306  0.0000
  O2     O2        0.743881645338244    0.251152805953988    0.678492985791860  0.0000
  O3     O3        0.762681366621982    0.714814053279172    0.651236496651948  0.0000
  O2     O2        0.163295911620491    0.241086929181086    0.114971994151466  0.0000
  O2     O2        0.343015968701101    0.765056155789172    0.139394867354521  0.0000
  O2     O2        0.845308528779529    0.221963160118226    0.866509795328733  0.0000
  O1     O1        0.667844340607418    0.791526734417443    0.867729681423427  0.0000
  O2     O2        0.842919968095729    0.698380683747715    0.861935583766801  0.0000
  O2     O2        0.642336070481662    0.237044813770165    0.875232762041722  0.0000
  O2     O2        0.138853823339194    0.734433327609313    0.126745967436478  0.0000
  O3     O3        0.359985446179720    0.267734911414763    0.137484613245571  0.0000
  O3     O3        0.633395288407388    0.512601535489305    0.028738599837637  0.0000
  O2     O2        0.875637508459489    0.461303020045181    0.044073884305813  0.0000
  O3     O3        0.375780392765744    0.546969944664248    0.952550799365847  0.0000
  O2     O2        0.135465972639139    0.489182377337687    0.942519217771030  0.0000
  O2     O2        0.745284769786537    0.281757397412958    0.059282347187566  0.0000
  O3     O3        0.770492951881952    0.708692899661983    0.079888142851149  0.0000
  O3     O3        0.261102303555804    0.290447688559519    0.919995812366935  0.0000
  O2     O2        0.245561393903420    0.724577899327252    0.942978225309627  0.0000
