data_c01134.vasp
_audit_creation_method             Generated by GULP
_audit_author_name                 Salvador R. G. Balestra
_symmetry_space_group_name_H-M     'P 1             '
_symmetry_Int_Tables_number        1

loop_
_symmetry_equiv_pos_site_id
_symmetry_equiv_pos_as_xyz
_cell_length_a                       17.0275
_cell_length_b                        7.5841
_cell_length_c                       10.3468
_cell_angle_alpha                   90.2400
_cell_angle_beta                    89.6897
_cell_angle_gamma                   90.5244

loop_
_atom_site_label
_atom_site_type_symbol
_atom_site_fract_x
_atom_site_fract_y
_atom_site_fract_z
_atom_site_charge
  Ge     Ge        0.556730000000016    0.000000000000000    0.122129999999970  0.0000
  Ge     Ge        0.650155834367010    0.698606607392932    0.704468909779228  0.0000
  Ge     Ge        0.353613265373885    0.694077708172086    0.960961862926884  0.0000
  Ge     Ge        0.647067481868797    0.673031512604227    0.017305858107763  0.0000
  Si     Si        0.046678050372656    0.025468418366290    0.347465112194220  0.0000
  Si     Si        0.446509510164335    0.024673229306796    0.368866900335674  0.0000
  Si     Si        0.953576904337372    0.025237723097366    0.612496025375362  0.0000
  Si     Si        0.547370165656354    0.009289459036962    0.620633800308643  0.0000
  Si     Si        0.943685861867930    0.020673152266886    0.094847508395544  0.0000
  Si     Si        0.449242596928942    0.015188670580194    0.875872907320988  0.0000
  Si     Si        0.059091501925689    0.018246463043036    0.859975407605366  0.0000
  Si     Si        0.150619155550560    0.334893749333506    0.265362799302020  0.0000
  Si     Si        0.345856710098902    0.714693565728262    0.267060173244501  0.0000
  Si     Si        0.850582667883736    0.331155160131689    0.699444136630616  0.0000
  Si     Si        0.832279511938629    0.734698289203517    0.702515148151922  0.0000
  Si     Si        0.669625775403480    0.283138807593239    0.702828418870848  0.0000
  Si     Si        0.165135501301427    0.740218090080514    0.259273438430669  0.0000
  Si     Si        0.331148153108154    0.306749539927169    0.270129673913984  0.0000
  Si     Si        0.672794566551705    0.270317727721059    0.003225721943467  0.0000
  Si     Si        0.829603530817991    0.729095207455770    0.008375995460247  0.0000
  Si     Si        0.334094966839702    0.289627112499515    0.968573705036492  0.0000
  Si     Si        0.169129092343187    0.731420568192064    0.956341123783838  0.0000
  Si     Si        0.152632317143528    0.333492482733291    0.965035432431720  0.0000
  Si     Si        0.853868166006173    0.337795954699729    0.998778216668598  0.0000
  O2     O2        0.089805711317689    0.216611239020072    0.347600500385026  0.0000
  O2     O2        0.404586752690446    0.833455455693477    0.353111068398826  0.0000
  O2     O2        0.910308111007124    0.214028783563475    0.615149957795849  0.0000
  O3     O3        0.581941725842472    0.814553867101664    0.616117085839847  0.0000
  O2     O2        0.889247131275130    0.871342978090858    0.630682186152081  0.0000
  O2     O2        0.622279900318926    0.143277523148166    0.614303127576421  0.0000
  O2     O2        0.112800487075968    0.874885894587695    0.340759282668632  0.0000
  O2     O2        0.381600101353091    0.177640158556294    0.358187496545610  0.0000
  O2     O2        0.996235137352317    0.002499917308972    0.476139118445147  0.0000
  O2     O2        0.485891682725026    0.039056800814993    0.507666479390064  0.0000
  O2     O2        0.988455672075225    0.002340986082750    0.228145543927459  0.0000
  O3     O3        0.516543498837960    0.053230537637516    0.268219624598034  0.0000
  O2     O2        0.019372368591529    0.010838993400349    0.721501864509094  0.0000
  O2     O2        0.499606525476472    0.056215199894488    0.749995747853743  0.0000
  O3     O3        0.643732890034531    0.116196683582227    0.094348842202119  0.0000
  O2     O2        0.873192761985787    0.879090074705728    0.091064345029931  0.0000
  O2     O2        0.370067838236368    0.133409625817313    0.882870658335690  0.0000
  O2     O2        0.125229512955674    0.868624674348151    0.865569574025800  0.0000
  O3     O3        0.422737935629660    0.811574626291615    0.874836550020857  0.0000
  O2     O2        0.097428597138755    0.211625475678058    0.877357429660262  0.0000
  O1     O1        0.581188898178349    0.782639666309942    0.113270108172320  0.0000
  O2     O2        0.910208906085028    0.218516694786735    0.085317718759325  0.0000
  O3     O3        0.496194151571741    0.071636426179747    0.001754137327957  0.0000
  O2     O2        0.998319932294057    0.974821872787662    0.973542872763685  0.0000
  O2     O2        0.134275456774522    0.541800220463720    0.287222390026040  0.0000
  O2     O2        0.361280541897899    0.507437209548276    0.290850783002456  0.0000
  O2     O2        0.865816187453572    0.538364926591740    0.676020180099164  0.0000
  O3     O3        0.634199990453700    0.474901281961181    0.684995192111545  0.0000
  O2     O2        0.239409639460748    0.291597261856215    0.308428825073600  0.0000
  O2     O2        0.255696035999333    0.758966484489802    0.302732946661353  0.0000
  O2     O2        0.761228516824739    0.283845137627791    0.660309510852724  0.0000
  O3     O3        0.744485706701667    0.747710097070764    0.650782713514351  0.0000
  O2     O2        0.138381376744662    0.285292521054851    0.115014956930960  0.0000
  O3     O3        0.365400818459266    0.761086018616610    0.119879637639605  0.0000
  O2     O2        0.866563669712789    0.284583399515973    0.849002077433856  0.0000
  O1     O1        0.634939386102807    0.751070495511572    0.863040691379423  0.0000
  O2     O2        0.826216940597270    0.775245887979235    0.855958472230748  0.0000
  O2     O2        0.664396221879378    0.220270532241209    0.851640230887158  0.0000
  O2     O2        0.161796756136724    0.785341167260545    0.107307916892280  0.0000
  O2     O2        0.341616372798607    0.249019990063484    0.121310723731355  0.0000
  O3     O3        0.626175702166050    0.450856276783905    0.027878351350226  0.0000
  O2     O2        0.875148249312838    0.542746558913247    0.023907677169366  0.0000
  O3     O3        0.376007731477699    0.475030252996706    0.940439071291653  0.0000
  O2     O2        0.131580884294096    0.536248545351517    0.937423978718154  0.0000
  O2     O2        0.763581910700366    0.308413843481398    0.036819246657808  0.0000
  O3     O3        0.742820390407804    0.714345303118447    0.064042231904056  0.0000
  O2     O2        0.243230062830359    0.303243645527726    0.929481019887234  0.0000
  O3     O3        0.259031688609701    0.732009208314669    0.913460832414323  0.0000
