data_c01176.vasp
_audit_creation_method             Generated by GULP
_audit_author_name                 Salvador R. G. Balestra
_symmetry_space_group_name_H-M     'P 1             '
_symmetry_Int_Tables_number        1

loop_
_symmetry_equiv_pos_site_id
_symmetry_equiv_pos_as_xyz
_cell_length_a                       17.1529
_cell_length_b                        7.6161
_cell_length_c                       10.2570
_cell_angle_alpha                   90.0865
_cell_angle_beta                    89.4992
_cell_angle_gamma                   89.0326

loop_
_atom_site_label
_atom_site_type_symbol
_atom_site_fract_x
_atom_site_fract_y
_atom_site_fract_z
_atom_site_charge
  Ge     Ge        0.160189999999943    0.293909999999983    0.273440000000051  0.0000
  Ge     Ge        0.362473894633761    0.659545807136522    0.266150262807111  0.0000
  Ge     Ge        0.858980693205129    0.289132185172947    0.695132261199987  0.0000
  Ge     Ge        0.363657655248992    0.638614984848652    0.949746011840494  0.0000
  Si     Si        0.058048491297491    0.985435283509968    0.356796165381230  0.0000
  Si     Si        0.464862653133103    0.967502800120094    0.351983174765536  0.0000
  Si     Si        0.966332933377227    0.977963470030495    0.618370913575061  0.0000
  Si     Si        0.560764469432335    0.988656987653130    0.611424749329469  0.0000
  Si     Si        0.566974226170046    0.979771234561794    0.095493280885575  0.0000
  Si     Si        0.952040951184478    0.974425589419802    0.111591200203811  0.0000
  Si     Si        0.454675057047076    0.955888173166709    0.856351253787292  0.0000
  Si     Si        0.068354635184699    0.972880645934286    0.874128869074532  0.0000
  Si     Si        0.666769364732425    0.681108478633784    0.706127537914218  0.0000
  Si     Si        0.847008008407340    0.701317249597196    0.705948886330236  0.0000
  Si     Si        0.676145456744974    0.275844986961449    0.697807168368726  0.0000
  Si     Si        0.181579623270944    0.699197810389314    0.261420459339420  0.0000
  Si     Si        0.343397197547068    0.249463585990817    0.272583836087586  0.0000
  Si     Si        0.677320735048503    0.268958621166351    0.003994392307737  0.0000
  Si     Si        0.845285040132414    0.686580123175662    0.010068099866670  0.0000
  Si     Si        0.341124316690265    0.235666333277753    0.966333563470331  0.0000
  Si     Si        0.183539123248075    0.677481143250689    0.952153661772969  0.0000
  Si     Si        0.161370144634831    0.285200943811385    0.964246685215186  0.0000
  Si     Si        0.665246426766202    0.666585761709354    0.009531866462843  0.0000
  Si     Si        0.856976327968255    0.285859030802134    0.005437353668172  0.0000
  O3     O3        0.092429457717460    0.178951334787879    0.362241248202438  0.0000
  O3     O3        0.428999252986151    0.776065225207836    0.355508310427816  0.0000
  O3     O3        0.927146423822684    0.169352090729979    0.607185405754555  0.0000
  O2     O2        0.609127768399834    0.806011467362726    0.625079840062151  0.0000
  O2     O2        0.894663254324458    0.843424785750530    0.624839939167229  0.0000
  O2     O2        0.618597606905283    0.151924319823977    0.619683302206927  0.0000
  O2     O2        0.130707328237605    0.858008226839188    0.320994352143774  0.0000
  O2     O2        0.392472532599539    0.106107165707272    0.353868625601469  0.0000
  O2     O2        0.021444074676900    0.934348030320767    0.495590797728941  0.0000
  O2     O2        0.521192017916339    0.996469528194450    0.472270307737070  0.0000
  O2     O2        0.989423491344988    0.966756902037347    0.252848841681834  0.0000
  O2     O2        0.515891952681490    0.003053103618439    0.223487957404103  0.0000
  O2     O2        0.018367658746860    0.955454248457465    0.745750606498444  0.0000
  O2     O2        0.492562270750872    0.005622376471579    0.718643314295931  0.0000
  O2     O2        0.631104971404111    0.131340319552207    0.090991408767022  0.0000
  O2     O2        0.889323230507691    0.819894160424133    0.103273232151570  0.0000
  O2     O2        0.377402769967853    0.075787036731533    0.882475768219074  0.0000
  O2     O2        0.135254014761184    0.823124026059549    0.873342174412983  0.0000
  O3     O3        0.428989043703024    0.755494942904297    0.855671491027400  0.0000
  O2     O2        0.106196331759912    0.165542375556512    0.875462496202607  0.0000
  O2     O2        0.609130261760357    0.788193829985942    0.098389251032489  0.0000
  O2     O2        0.911394664006658    0.165160158051291    0.096048566745595  0.0000
  O2     O2        0.514847359486620    0.001892420766945    0.968901665302694  0.0000
  O2     O2        0.016918718266156    0.939582886673085    0.001939621128441  0.0000
  O3     O3        0.141341805881375    0.515836042805807    0.292337578445572  0.0000
  O3     O3        0.380905736302897    0.438375775853413    0.288360289092044  0.0000
  O3     O3        0.877649482715449    0.508189591235801    0.672114856126323  0.0000
  O2     O2        0.649426238028673    0.478278963815919    0.675175397284435  0.0000
  O3     O3        0.254652030643980    0.253450662485504    0.322758482140642  0.0000
  O3     O3        0.267862681758050    0.703943791736546    0.318672913128835  0.0000
  O3     O3        0.764236681559687    0.248815186211893    0.649377439862345  0.0000
  O2     O2        0.756004543368435    0.721427837409816    0.668376583845386  0.0000
  O3     O3        0.147340464535810    0.232367167657656    0.112998325789317  0.0000
  O1     O1        0.375412562821019    0.712278535330884    0.105675894333656  0.0000
  O3     O3        0.871284603834644    0.232315425066796    0.856737962400213  0.0000
  O2     O2        0.652385661090147    0.719988333459209    0.859091335402416  0.0000
  O2     O2        0.856236206234108    0.740955153108634    0.859747218597572  0.0000
  O2     O2        0.671850144480085    0.226890231985202    0.850776627417516  0.0000
  O2     O2        0.192550747895654    0.721384783754306    0.105253682790808  0.0000
  O2     O2        0.342931185178955    0.193604323039577    0.120204980103062  0.0000
  O2     O2        0.642666386194126    0.464358575082899    0.032462989992074  0.0000
  O2     O2        0.878783065893064    0.489027108220277    0.029466450485069  0.0000
  O3     O3        0.385029331701491    0.415900779681305    0.939487937373470  0.0000
  O2     O2        0.140244126527201    0.490096015238863    0.938985670489243  0.0000
  O2     O2        0.767169319034382    0.257495282160109    0.045501879012620  0.0000
  O2     O2        0.754405929435408    0.695659371873514    0.048925962675397  0.0000
  O2     O2        0.251406808473827    0.254840323452364    0.923616857028438  0.0000
  O3     O3        0.269636374156290    0.668489057755653    0.893533366812543  0.0000
