data_c01156.vasp
_audit_creation_method             Generated by GULP
_audit_author_name                 Salvador R. G. Balestra
_symmetry_space_group_name_H-M     'P 1             '
_symmetry_Int_Tables_number        1

loop_
_symmetry_equiv_pos_site_id
_symmetry_equiv_pos_as_xyz
_cell_length_a                       16.9116
_cell_length_b                        7.6052
_cell_length_c                       10.3759
_cell_angle_alpha                   90.6474
_cell_angle_beta                    89.9836
_cell_angle_gamma                   89.4779

loop_
_atom_site_label
_atom_site_type_symbol
_atom_site_fract_x
_atom_site_fract_y
_atom_site_fract_z
_atom_site_charge
  Ge     Ge        0.556730000000016    0.000000000000000    0.122129999999970  0.0000
  Ge     Ge        0.643739158276135    0.332582904447204    0.024110042258004  0.0000
  Ge     Ge        0.165798225024285    0.254811238401500    0.967594835925401  0.0000
  Ge     Ge        0.832046445553274    0.271883450076999    0.018720596482701  0.0000
  Si     Si        0.050224926158644    0.968772322021293    0.363269461773387  0.0000
  Si     Si        0.450595887607786    0.976911430571631    0.369676511491556  0.0000
  Si     Si        0.946718943963424    0.961884321036625    0.616766099248656  0.0000
  Si     Si        0.546052651564540    0.983338419677433    0.629976681549315  0.0000
  Si     Si        0.946525359195601    0.984187551046153    0.109018180552466  0.0000
  Si     Si        0.444263078062435    0.970701826779874    0.883036904735542  0.0000
  Si     Si        0.053650322964088    0.973344246428122    0.867726251560105  0.0000
  Si     Si        0.165418887722718    0.253963332830766    0.274110062464976  0.0000
  Si     Si        0.334782578072196    0.689257224908039    0.274577953330947  0.0000
  Si     Si        0.830319795389478    0.253300765972407    0.711725831751178  0.0000
  Si     Si        0.664424205704290    0.697759654652356    0.705901024841553  0.0000
  Si     Si        0.846045458162340    0.658149190781530    0.699967859945820  0.0000
  Si     Si        0.648988175455167    0.293412014895656    0.717131677986927  0.0000
  Si     Si        0.152836110305112    0.660857461586486    0.276463260519520  0.0000
  Si     Si        0.346664450237028    0.286296544536479    0.271660829832257  0.0000
  Si     Si        0.855507146896983    0.667122455891823    0.996914215582468  0.0000
  Si     Si        0.350444260418959    0.294268765672339    0.969170449096398  0.0000
  Si     Si        0.147192387424260    0.659309414160101    0.977623756519737  0.0000
  Si     Si        0.331242231132385    0.691144335534313    0.974097615352909  0.0000
  Si     Si        0.671868603871431    0.728090676721741    0.005087290930082  0.0000
  O2     O2        0.113792064832241    0.126193553659966    0.362478344040161  0.0000
  O2     O2        0.385725191499803    0.823238719054739    0.359613484483546  0.0000
  O2     O2        0.881272558241396    0.116789172863179    0.625636492611461  0.0000
  O2     O2        0.612377531539259    0.828800562188111    0.618770377339523  0.0000
  O2     O2        0.903411489428924    0.772617611417657    0.610245265018131  0.0000
  O2     O2        0.588355747259850    0.172549829317548    0.636203368386868  0.0000
  O2     O2        0.095714362596224    0.780682094539935    0.365381725630574  0.0000
  O2     O2        0.409292095582114    0.166047503672228    0.346091094337705  0.0000
  O2     O2        0.996975518983600    0.987823016186991    0.488939569073283  0.0000
  O2     O2        0.487976126300800    0.977252664590846    0.509926582828831  0.0000
  O2     O2        0.994720585476653    0.980915250174768    0.239864790440738  0.0000
  O3     O3        0.520835910634217    0.943891435779607    0.269763010523867  0.0000
  O2     O2        0.005621878861026    0.971073019126632    0.736781193674309  0.0000
  O2     O2        0.491772379639780    0.946899079785331    0.752397278549205  0.0000
  O1     O1        0.575761209852206    0.218908838372660    0.111586046539229  0.0000
  O2     O2        0.909695374100971    0.792903220847292    0.082723628039557  0.0000
  O2     O2        0.414846624435299    0.174036760873520    0.894735075376178  0.0000
  O2     O2        0.089638787299177    0.780073139958961    0.893509932129953  0.0000
  O2     O2        0.369995194940886    0.837268679479930    0.884495842833426  0.0000
  O3     O3        0.123631210909594    0.111457934315924    0.860375084296988  0.0000
  O3     O3        0.646394474860137    0.891992502851636    0.090903127815925  0.0000
  O3     O3        0.878010625915908    0.127100698427486    0.120523445142403  0.0000
  O3     O3        0.496366626084662    0.917077214012551    0.003493228648037  0.0000
  O2     O2        0.000806658942912    0.042226721081825    0.988517279483546  0.0000
  O2     O2        0.135140802387793    0.454857173873014    0.294965675886008  0.0000
  O2     O2        0.365543982138196    0.490744295777974    0.299562097045013  0.0000
  O2     O2        0.863276560056289    0.449911595852221    0.686600661661187  0.0000
  O2     O2        0.631049407627158    0.500006151032153    0.692461189341913  0.0000
  O2     O2        0.257633914908793    0.241429924324539    0.315233735184754  0.0000
  O2     O2        0.243066119431259    0.703053944341756    0.315136527485044  0.0000
  O2     O2        0.738161711968847    0.247065391438699    0.670634435093327  0.0000
  O2     O2        0.755591705210421    0.699712407230773    0.659997940616895  0.0000
  O3     O3        0.157732017621670    0.193570753097372    0.126613457016746  0.0000
  O2     O2        0.342963022241420    0.740154364591024    0.124765355107438  0.0000
  O3     O3        0.835212626910528    0.200423219969322    0.859728115734624  0.0000
  O2     O2        0.660595048452481    0.766776112333522    0.852984027640697  0.0000
  O2     O2        0.863561621281416    0.719524204328717    0.846739068606570  0.0000
  O3     O3        0.638140596126737    0.254373631913751    0.866421533857194  0.0000
  O2     O2        0.137246056266548    0.711793924518156    0.128170763444901  0.0000
  O2     O2        0.356530669689183    0.245428372618048    0.120117685490316  0.0000
  O3     O3        0.622622834662746    0.554108612633635    0.037517641302457  0.0000
  O3     O3        0.881803779186206    0.470195025537590    0.022173965291275  0.0000
  O2     O2        0.370723103745607    0.499415636010514    0.947105543517103  0.0000
  O3     O3        0.123697096937400    0.460783056798086    0.952141293230044  0.0000
  O1     O1        0.738051470651620    0.289215172614123    0.074759363299687  0.0000
  O2     O2        0.763207471034679    0.681205904113301    0.034695151696858  0.0000
  O3     O3        0.263396077276484    0.257199316985443    0.920662623252426  0.0000
  O2     O2        0.238767230748207    0.685942080474268    0.939122340765211  0.0000
