data_c01103.vasp
_audit_creation_method             Generated by GULP
_audit_author_name                 Salvador R. G. Balestra
_symmetry_space_group_name_H-M     'P 1             '
_symmetry_Int_Tables_number        1

loop_
_symmetry_equiv_pos_site_id
_symmetry_equiv_pos_as_xyz
_cell_length_a                       16.9978
_cell_length_b                        7.6358
_cell_length_c                       10.2979
_cell_angle_alpha                   89.9343
_cell_angle_beta                    90.9535
_cell_angle_gamma                   89.8995

loop_
_atom_site_label
_atom_site_type_symbol
_atom_site_fract_x
_atom_site_fract_y
_atom_site_fract_z
_atom_site_charge
  Ge     Ge        0.556730000000016    0.000000000000000    0.122129999999970  0.0000
  Ge     Ge        0.836568714333298    0.274703500467059    0.713333630580143  0.0000
  Ge     Ge        0.331610109341949    0.702809863582416    0.970325854501923  0.0000
  Ge     Ge        0.830138101163446    0.263171199295422    0.028046320075797  0.0000
  Si     Si        0.057445745374398    0.981504640961539    0.380402569989112  0.0000
  Si     Si        0.456121692040073    0.997630617989243    0.379095520770304  0.0000
  Si     Si        0.955719113798342    0.989588671772405    0.633077426227472  0.0000
  Si     Si        0.552843186967227    0.014947363651598    0.640673867620298  0.0000
  Si     Si        0.942455139223267    0.982533106317457    0.136955969656523  0.0000
  Si     Si        0.442387763362409    0.985497441704196    0.883158758228422  0.0000
  Si     Si        0.050968071230290    0.992379410637980    0.897958004080144  0.0000
  Si     Si        0.168912293029766    0.276738514024813    0.288284949090776  0.0000
  Si     Si        0.341285202422549    0.705838186988313    0.279330313494376  0.0000
  Si     Si        0.670095919699921    0.726606812218525    0.720487387628031  0.0000
  Si     Si        0.852716309412729    0.686257863740872    0.723980962277301  0.0000
  Si     Si        0.655865634930963    0.327783259138467    0.709681333063634  0.0000
  Si     Si        0.161471294895429    0.677759573569165    0.287270887428998  0.0000
  Si     Si        0.350160976048112    0.299751309639429    0.281926703448247  0.0000
  Si     Si        0.649673643658431    0.323652073679233    0.017244221871353  0.0000
  Si     Si        0.855698416349170    0.667209900535134    0.023776583335941  0.0000
  Si     Si        0.348447154314636    0.300738418910344    0.980904044985395  0.0000
  Si     Si        0.148048996511079    0.672304031327103    0.981760351277362  0.0000
  Si     Si        0.165038054499040    0.277076754496251    0.985619389799510  0.0000
  Si     Si        0.672741440262217    0.716549624007998    0.022229225590094  0.0000
  O2     O2        0.117640327094019    0.144161990604597    0.372276915133272  0.0000
  O2     O2        0.397280080357748    0.833549851567754    0.362510606166945  0.0000
  O3     O3        0.893598758973773    0.144909566105017    0.615760289694626  0.0000
  O2     O2        0.622460280159699    0.870334002844121    0.636244923823731  0.0000
  O2     O2        0.908446983794967    0.806778183271771    0.637370412014225  0.0000
  O2     O2        0.590040999728475    0.209274701822852    0.637397325653764  0.0000
  O2     O2        0.104685712234763    0.799745416250202    0.369817687797943  0.0000
  O2     O2        0.409062644079693    0.181151987745792    0.366815805526826  0.0000
  O2     O2        0.017440055794978    0.985491050150969    0.518568208294818  0.0000
  O2     O2        0.493148622305867    0.987763843625831    0.522223164963357  0.0000
  O2     O2        0.990170824603858    0.993709267092363    0.270827162466563  0.0000
  O3     O3        0.526665769924017    0.991455009918280    0.279513955512988  0.0000
  O2     O2        0.004539929568166    0.021919250846548    0.765259376385973  0.0000
  O2     O2        0.505294740619516    0.989640076527141    0.771535808511625  0.0000
  O3     O3        0.581023202635271    0.211728693890159    0.078482769695611  0.0000
  O2     O2        0.910782268773448    0.784566750805599    0.117419705922061  0.0000
  O2     O2        0.401197456929135    0.175614478973341    0.893646044849395  0.0000
  O2     O2        0.082942189360707    0.793185805011573    0.910128182945944  0.0000
  O3     O3        0.375556064830481    0.841445754140022    0.862339674086861  0.0000
  O2     O2        0.123326922759489    0.128944608877789    0.899666168847376  0.0000
  O3     O3        0.637267239268329    0.862407925822231    0.112821802372644  0.0000
  O3     O3        0.871322682326619    0.117612369625256    0.137501346983046  0.0000
  O3     O3        0.484515262323015    0.927522457024470    0.017405119481144  0.0000
  O2     O2        0.995869035338195    0.042966321260526    0.016910916169418  0.0000
  O2     O2        0.141400570261819    0.475255653742103    0.316942700041131  0.0000
  O2     O2        0.369990709065606    0.504936225900067    0.299242723061806  0.0000
  O3     O3        0.872031476694299    0.486012005719544    0.701498927029863  0.0000
  O2     O2        0.636013821995168    0.533514295004728    0.687666422746450  0.0000
  O2     O2        0.261226721510371    0.258692717193278    0.324866668231135  0.0000
  O2     O2        0.251466743358455    0.720189512203775    0.327537965427011  0.0000
  O3     O3        0.740427381829077    0.280941140697938    0.655006713212327  0.0000
  O2     O2        0.762037542081505    0.731647498381623    0.685319805427169  0.0000
  O2     O2        0.157032631117059    0.229539011552732    0.137155975633496  0.0000
  O3     O3        0.343818491538913    0.763832846994110    0.130726812871227  0.0000
  O1     O1        0.838354476532522    0.198777316617741    0.869673268408989  0.0000
  O2     O2        0.660759933670359    0.774439363451714    0.871898552686576  0.0000
  O2     O2        0.868260559260841    0.731721907857520    0.875854896433356  0.0000
  O2     O2        0.658338976386837    0.286856938096492    0.863354063413607  0.0000
  O2     O2        0.148679807432285    0.717434721814177    0.134908121713106  0.0000
  O2     O2        0.362702362584822    0.247685347991579    0.131781715480829  0.0000
  O2     O2        0.630545177240757    0.528718969008277    0.042082322333052  0.0000
  O3     O3        0.876064589618253    0.465833139023458    0.041032452207508  0.0000
  O3     O3        0.372490024935898    0.497382269941031    0.953687610481218  0.0000
  O2     O2        0.126259563719573    0.467859956114501    0.958667702291593  0.0000
  O3     O3        0.733807042678832    0.273487793340778    0.078213869586044  0.0000
  O2     O2        0.764406518063673    0.694659504356948    0.058191611630162  0.0000
  O2     O2        0.255987816980967    0.280393809092943    0.946462707648072  0.0000
  O3     O3        0.233416827628645    0.707364826791042    0.927061481632339  0.0000
