data_c01130.vasp
_audit_creation_method             Generated by GULP
_audit_author_name                 Salvador R. G. Balestra
_symmetry_space_group_name_H-M     'P 1             '
_symmetry_Int_Tables_number        1

loop_
_symmetry_equiv_pos_site_id
_symmetry_equiv_pos_as_xyz
_cell_length_a                       17.0096
_cell_length_b                        7.5935
_cell_length_c                       10.3252
_cell_angle_alpha                   91.0835
_cell_angle_beta                    90.1651
_cell_angle_gamma                   90.4201

loop_
_atom_site_label
_atom_site_type_symbol
_atom_site_fract_x
_atom_site_fract_y
_atom_site_fract_z
_atom_site_charge
  Ge     Ge        0.556730000000016    0.000000000000000    0.122129999999970  0.0000
  Ge     Ge        0.657094733893546    0.709451393189992    0.703826510361022  0.0000
  Ge     Ge        0.139714847388972    0.648921426325063    0.951099781976710  0.0000
  Ge     Ge        0.164256600401128    0.237706009472427    0.960018388588129  0.0000
  Si     Si        0.043813748433623    0.988455719630113    0.349481956963829  0.0000
  Si     Si        0.441790053639580    0.010212100159170    0.364424014295064  0.0000
  Si     Si        0.942282896813727    0.977920783544773    0.605196128547138  0.0000
  Si     Si        0.537296508314160    0.989175375725023    0.621349531190254  0.0000
  Si     Si        0.945580048348571    0.995884619868096    0.091317492161823  0.0000
  Si     Si        0.441831532564143    0.980399548284228    0.881994930715777  0.0000
  Si     Si        0.051264785716422    0.963553067675229    0.849618655345080  0.0000
  Si     Si        0.160785439863581    0.271832603797134    0.266077447911342  0.0000
  Si     Si        0.325040054662304    0.715414070156515    0.259568231756907  0.0000
  Si     Si        0.826376521603908    0.265989906396079    0.696556537194827  0.0000
  Si     Si        0.841696730484142    0.669302516905994    0.690925473982799  0.0000
  Si     Si        0.644680225556352    0.294434536737402    0.707442558509852  0.0000
  Si     Si        0.145627420693514    0.681096420630734    0.256588640402395  0.0000
  Si     Si        0.340367048461531    0.314505919964071    0.269245509659110  0.0000
  Si     Si        0.650324226750282    0.314117275839728    0.006501712229928  0.0000
  Si     Si        0.850029277682055    0.675801875308549    0.993880215658646  0.0000
  Si     Si        0.347622902700682    0.302793478614943    0.965447179764289  0.0000
  Si     Si        0.324608547662058    0.696228796480354    0.955298697348754  0.0000
  Si     Si        0.669186152371154    0.719883567294857    0.008097405777861  0.0000
  Si     Si        0.831362679295083    0.277864456010840    0.999066205815484  0.0000
  O2     O2        0.107906486130560    0.147067935066336    0.356364788817653  0.0000
  O2     O2        0.377205553088500    0.858887159487586    0.335495085217940  0.0000
  O2     O2        0.874470253338184    0.125256122202598    0.611390416108827  0.0000
  O3     O3        0.599866475916104    0.834369198740915    0.604368243149870  0.0000
  O2     O2        0.902576783275654    0.784413861980591    0.607729129001662  0.0000
  O2     O2        0.585438744567905    0.173068554891878    0.623637829568314  0.0000
  O2     O2        0.086591732603421    0.799168457594127    0.343164981840098  0.0000
  O2     O2        0.401537794181213    0.201026559013115    0.350836492582311  0.0000
  O2     O2        0.991167771229729    0.998479655281080    0.476032901578544  0.0000
  O2     O2        0.471819987363015    0.991506552761238    0.510514687199347  0.0000
  O2     O2        0.985918948329504    0.015380040305373    0.229409536092503  0.0000
  O3     O3        0.517014560265827    0.992521204889845    0.273798081013574  0.0000
  O2     O2        0.001707795890636    0.008271166012171    0.724120260221711  0.0000
  O2     O2        0.493759453819848    0.955050148453457    0.755892776791454  0.0000
  O3     O3        0.592624728257277    0.210658681707479    0.098652269638434  0.0000
  O2     O2        0.911788417404975    0.797470508576790    0.072555364709368  0.0000
  O2     O2        0.411985952960709    0.182123149771379    0.893307223293121  0.0000
  O3     O3        0.072444504180859    0.759716692514339    0.857608572380180  0.0000
  O2     O2        0.368744097265620    0.843585508691595    0.872903997947938  0.0000
  O3     O3        0.132372413453901    0.071794518259811    0.857307315348700  0.0000
  O3     O3        0.632117171149800    0.849075883339037    0.112725224392000  0.0000
  O2     O2        0.876025659958956    0.137966718849450    0.085739888412633  0.0000
  O3     O3        0.489496315074510    0.930204396313187    0.008548747387434  0.0000
  O2     O2        0.007374863245478    0.038889205676926    0.978866655513750  0.0000
  O2     O2        0.128594455648537    0.472071354570898    0.270844875995610  0.0000
  O2     O2        0.358866911696250    0.521916929631405    0.290458842242345  0.0000
  O2     O2        0.856809836101857    0.462024075271330    0.664136678253174  0.0000
  O3     O3        0.624773589432100    0.494935092331025    0.685913308022678  0.0000
  O2     O2        0.251486404081686    0.272243294675629    0.314178576269823  0.0000
  O2     O2        0.234416767221211    0.725765200261979    0.304555341815452  0.0000
  O2     O2        0.733990763918408    0.251024379707376    0.662937631198988  0.0000
  O3     O3        0.753864522109188    0.718208102501479    0.653922552288279  0.0000
  O3     O3        0.157970815286690    0.190777152515839    0.122457751564699  0.0000
  O2     O2        0.326131626038665    0.752535337903809    0.107061082603716  0.0000
  O2     O2        0.838570400714905    0.224969064029362    0.847796409948849  0.0000
  O3     O3        0.653219582825603    0.783817354885747    0.862816115622305  0.0000
  O2     O2        0.858291577313322    0.715583283758192    0.842005666954951  0.0000
  O2     O2        0.634960997518674    0.246997529428954    0.858918120494848  0.0000
  O3     O3        0.132482550765229    0.729926660122920    0.108603630853938  0.0000
  O2     O2        0.351579964480957    0.261894821229682    0.118706567952038  0.0000
  O2     O2        0.634146876401330    0.521985192778617    0.018364513645036  0.0000
  O2     O2        0.869229311886252    0.472200543789721    0.022323807743385  0.0000
  O2     O2        0.368141762754750    0.507426426834117    0.939272613032763  0.0000
  O1     O1        0.116680947712415    0.432212189247755    0.935537948281279  0.0000
  O2     O2        0.740919367281410    0.275610394545987    0.043065959085369  0.0000
  O2     O2        0.762127545154049    0.718240644460344    0.037765198233459  0.0000
  O3     O3        0.261288250830648    0.262467788055255    0.915232027181519  0.0000
  O3     O3        0.236424984052112    0.680482527383060    0.904820355649975  0.0000
