data_c01142.vasp
_audit_creation_method             Generated by GULP
_audit_author_name                 Salvador R. G. Balestra
_symmetry_space_group_name_H-M     'P 1             '
_symmetry_Int_Tables_number        1

loop_
_symmetry_equiv_pos_site_id
_symmetry_equiv_pos_as_xyz
_cell_length_a                       16.9458
_cell_length_b                        7.5786
_cell_length_c                       10.3689
_cell_angle_alpha                   90.0638
_cell_angle_beta                    90.3369
_cell_angle_gamma                   89.2703

loop_
_atom_site_label
_atom_site_type_symbol
_atom_site_fract_x
_atom_site_fract_y
_atom_site_fract_z
_atom_site_charge
  Ge     Ge        0.556730000000016    0.000000000000000    0.122129999999970  0.0000
  Ge     Ge        0.648703503972853    0.327742372758431    0.026962108567630  0.0000
  Ge     Ge        0.861742047358351    0.660933479062319    0.012722362518758  0.0000
  Ge     Ge        0.168874284648610    0.266094696097404    0.974171517249706  0.0000
  Si     Si        0.047589855042453    0.992988296263328    0.366102538615006  0.0000
  Si     Si        0.447740406699586    0.993159873140982    0.372907670735557  0.0000
  Si     Si        0.946370064212863    0.978060913395183    0.621382648485061  0.0000
  Si     Si        0.545299238679749    0.001971138406297    0.633151000504806  0.0000
  Si     Si        0.952490251400147    0.984704465630888    0.107801713629971  0.0000
  Si     Si        0.445043330619674    0.987347756307083    0.883303368303158  0.0000
  Si     Si        0.058747245332537    0.987154606789731    0.867126324703364  0.0000
  Si     Si        0.164867173258414    0.273235405804068    0.280392117154245  0.0000
  Si     Si        0.331563470881736    0.711392808935417    0.283772326427770  0.0000
  Si     Si        0.828473526847490    0.268597958871105    0.712480091389815  0.0000
  Si     Si        0.666756887201693    0.713795387809177    0.723640594093376  0.0000
  Si     Si        0.846581687620977    0.672546977362852    0.707404509780374  0.0000
  Si     Si        0.648528376904011    0.306805588450197    0.722440819440842  0.0000
  Si     Si        0.149448342228397    0.681948284421072    0.274751152510607  0.0000
  Si     Si        0.345246664763033    0.307697010456319    0.286372258667040  0.0000
  Si     Si        0.352732829240677    0.309817535829960    0.983639984726767  0.0000
  Si     Si        0.149192779069985    0.671755981084096    0.977150821061655  0.0000
  Si     Si        0.333179484527060    0.707447385204538    0.983481721140737  0.0000
  Si     Si        0.677464574865778    0.726784745382772    0.025246703617113  0.0000
  Si     Si        0.833322983839518    0.262820146060811    0.016011386800708  0.0000
  O2     O2        0.113040897129863    0.146208458567993    0.369598498708470  0.0000
  O2     O2        0.378895575012433    0.846875555484563    0.373127046142917  0.0000
  O2     O2        0.879396844695420    0.130368024244720    0.629637584155087  0.0000
  O2     O2        0.611875744240812    0.849119333614897    0.644450324759460  0.0000
  O2     O2        0.904259275190008    0.788039008876058    0.617877330606114  0.0000
  O2     O2        0.586340601199465    0.193171749956533    0.639157612329062  0.0000
  O2     O2        0.090253676927089    0.800902983091183    0.359479446251487  0.0000
  O2     O2        0.407607711556774    0.187571789259712    0.364822219650740  0.0000
  O2     O2        0.995969620326328    0.003745521140479    0.493264433434249  0.0000
  O2     O2        0.501173494147025    0.981252751358908    0.498720220191569  0.0000
  O2     O2        0.990053985065926    0.027061477034798    0.245506306477564  0.0000
  O3     O3        0.504406380304028    0.948514319627664    0.255533218721734  0.0000
  O2     O2        0.005879828788824    0.994593434262075    0.740890709550369  0.0000
  O2     O2        0.478462350878561    0.980223190702278    0.740261460602379  0.0000
  O1     O1        0.582948721021991    0.216418946533004    0.119137518525066  0.0000
  O3     O3        0.931356862235518    0.780381997777292    0.095566611073044  0.0000
  O2     O2        0.418848715557574    0.189290620274918    0.915311646763321  0.0000
  O2     O2        0.094946946577958    0.790345150365864    0.883521516635746  0.0000
  O2     O2        0.371028332387214    0.854865804071267    0.893362816149174  0.0000
  O3     O3        0.128870014521206    0.124887280735111    0.863245453430147  0.0000
  O3     O3        0.644987742020397    0.882680709185540    0.112417145363800  0.0000
  O2     O2        0.871806028107823    0.097974644846569    0.091893418285125  0.0000
  O3     O3        0.508860836777106    0.924646850177169    0.985740000711437  0.0000
  O2     O2        0.010538416454066    0.046734634974147    0.994343487640005  0.0000
  O2     O2        0.133045868408316    0.474692140585093    0.294148662153240  0.0000
  O2     O2        0.362841957835869    0.513031887649431    0.313017159544839  0.0000
  O2     O2        0.862785607875588    0.463734463960508    0.687597496498522  0.0000
  O2     O2        0.631916920823789    0.516899050728768    0.708803559070656  0.0000
  O2     O2        0.256037391551435    0.263567967482534    0.327517614824742  0.0000
  O2     O2        0.238917226745574    0.725454715197034    0.316177536118574  0.0000
  O2     O2        0.736642690988137    0.262611173568846    0.670336589142813  0.0000
  O2     O2        0.755789379895906    0.717065356921302    0.668849676216663  0.0000
  O3     O3        0.160511539650248    0.206759065913375    0.133958782217870  0.0000
  O2     O2        0.343719860980138    0.760598825173308    0.133587756225388  0.0000
  O2     O2        0.831850026957055    0.220474995463123    0.862930337388197  0.0000
  O2     O2        0.672044308601884    0.771877039901515    0.872283288251188  0.0000
  O3     O3        0.866232377346262    0.724911117850965    0.853175403580847  0.0000
  O3     O3        0.637582896921801    0.252659540346161    0.869784970004261  0.0000
  O2     O2        0.134741641314691    0.732306098114601    0.125204520404273  0.0000
  O2     O2        0.356252240582589    0.264420834904107    0.135692188473321  0.0000
  O3     O3        0.628615677094262    0.548380261049860    0.046118853124241  0.0000
  O3     O3        0.883224437326474    0.439866354139955    0.034639867990577  0.0000
  O2     O2        0.373571703175925    0.515435652458354    0.960153009042561  0.0000
  O3     O3        0.125848093654367    0.472368374593643    0.955922592926295  0.0000
  O3     O3        0.746193432697841    0.288441857334489    0.069185164858284  0.0000
  O3     O3        0.767320529200377    0.693436743453534    0.066508885810647  0.0000
  O3     O3        0.266872334768822    0.270504630748957    0.930738981634591  0.0000
  O2     O2        0.241393763705750    0.696848532429994    0.946104843956049  0.0000
