data_c01122.vasp
_audit_creation_method             Generated by GULP
_audit_author_name                 Salvador R. G. Balestra
_symmetry_space_group_name_H-M     'P 1             '
_symmetry_Int_Tables_number        1

loop_
_symmetry_equiv_pos_site_id
_symmetry_equiv_pos_as_xyz
_cell_length_a                       16.9544
_cell_length_b                        7.6146
_cell_length_c                       10.3515
_cell_angle_alpha                   89.7429
_cell_angle_beta                    89.8810
_cell_angle_gamma                   91.0501

loop_
_atom_site_label
_atom_site_type_symbol
_atom_site_fract_x
_atom_site_fract_y
_atom_site_fract_z
_atom_site_charge
  Ge     Ge        0.556730000000016    0.000000000000000    0.122129999999970  0.0000
  Ge     Ge        0.649062981204766    0.695362621033997    0.705438718027511  0.0000
  Ge     Ge        0.829145382989587    0.735606335248788    0.017656274763326  0.0000
  Ge     Ge        0.642978813380175    0.668751396312736    0.021776385595235  0.0000
  Si     Si        0.050715398332791    0.031915841681626    0.358822105842807  0.0000
  Si     Si        0.450706147445921    0.034980865404544    0.369690842876633  0.0000
  Si     Si        0.952673649380783    0.032762331420245    0.618720235031024  0.0000
  Si     Si        0.546655775606354    0.007793796856682    0.625972094942938  0.0000
  Si     Si        0.942922999254373    0.027628792547766    0.108807264630372  0.0000
  Si     Si        0.445162123006267    0.037455628687510    0.880376214534724  0.0000
  Si     Si        0.054675388502920    0.024791799618064    0.870911281125627  0.0000
  Si     Si        0.155110388281696    0.340696602760333    0.275200857984163  0.0000
  Si     Si        0.346735043802634    0.725770888203791    0.269642271305367  0.0000
  Si     Si        0.850759355447043    0.335924953512944    0.706571138600065  0.0000
  Si     Si        0.831570367544210    0.740451703265310    0.707057758048343  0.0000
  Si     Si        0.669084496185300    0.285118117404034    0.705299214852754  0.0000
  Si     Si        0.164383706265294    0.744205702222308    0.271291005268645  0.0000
  Si     Si        0.336798413329501    0.321568507950483    0.270097222479615  0.0000
  Si     Si        0.672365005391567    0.273955891887385    0.006266028664720  0.0000
  Si     Si        0.333860135015121    0.320171760296183    0.968440609105890  0.0000
  Si     Si        0.164717844648947    0.740588378115284    0.970033467241346  0.0000
  Si     Si        0.347400060771101    0.719865493112546    0.969375782391745  0.0000
  Si     Si        0.151562575648867    0.340908158475794    0.973908829407549  0.0000
  Si     Si        0.855465325516478    0.343069453036099    0.003730399316145  0.0000
  O2     O2        0.098091226423263    0.217874627251139    0.361821099520846  0.0000
  O2     O2        0.406050026495098    0.847395411599182    0.350644172717706  0.0000
  O2     O2        0.909881138663156    0.221022467154755    0.620869826103306  0.0000
  O3     O3        0.579968761948260    0.813660409471733    0.619942891542547  0.0000
  O2     O2        0.888623645142871    0.875815121704577    0.630881982806195  0.0000
  O2     O2        0.622859654398799    0.139898366498682    0.620156469487188  0.0000
  O2     O2        0.113271419778821    0.874472557219105    0.356882058357523  0.0000
  O2     O2        0.389034574151069    0.192021191820521    0.354245156543341  0.0000
  O2     O2        0.996577320775736    0.013541355185228    0.483472883350226  0.0000
  O2     O2        0.485997463091330    0.043806732251536    0.511830804975616  0.0000
  O2     O2        0.996714271748320    0.019796079942477    0.233510091149101  0.0000
  O3     O3        0.522736769881056    0.055703776134768    0.271924730439991  0.0000
  O2     O2        0.017765928524500    0.018658618621784    0.730007100422003  0.0000
  O2     O2        0.499067991998511    0.049234303327498    0.755667189051388  0.0000
  O3     O3        0.646008745716248    0.111374677057393    0.092722540162620  0.0000
  O3     O3        0.873118418149371    0.887081695931978    0.117994637767632  0.0000
  O2     O2        0.377710084434904    0.185326940590196    0.876110117641980  0.0000
  O2     O2        0.121300115089169    0.876990081024678    0.878324960374566  0.0000
  O2     O2        0.405292200082743    0.842041936057197    0.884408280584475  0.0000
  O2     O2        0.092634571310757    0.218118599179709    0.892873681941784  0.0000
  O1     O1        0.574618087662620    0.781887194141412    0.109726890694326  0.0000
  O2     O2        0.907323824934124    0.221651057469855    0.095951055336538  0.0000
  O3     O3        0.494173135893152    0.080056154238609    0.006718817101971  0.0000
  O2     O2        0.990102331530534    0.976046421969124    0.978991110300144  0.0000
  O2     O2        0.137871858786236    0.544183367109174    0.303620128850605  0.0000
  O2     O2        0.364052289480165    0.522058391959753    0.298525179823270  0.0000
  O2     O2        0.866638038587331    0.544112532184638    0.690511446496866  0.0000
  O3     O3        0.631622940136630    0.473030534378777    0.683073353510530  0.0000
  O2     O2        0.245365667571470    0.297383328737778    0.309361181316046  0.0000
  O2     O2        0.256723093001156    0.770344244096020    0.304714763648516  0.0000
  O2     O2        0.761208235135548    0.290699942583907    0.664011934026800  0.0000
  O3     O3        0.743858207437507    0.743078419990735    0.650748094525979  0.0000
  O2     O2        0.138793672698013    0.298707209126690    0.125071009724504  0.0000
  O2     O2        0.363975888043309    0.766734546185864    0.119019174576326  0.0000
  O2     O2        0.866426981155665    0.281109264485153    0.855302178307060  0.0000
  O1     O1        0.637396240480907    0.743072458247684    0.864715214207310  0.0000
  O3     O3        0.825198158529640    0.793999291311460    0.856305986739335  0.0000
  O2     O2        0.664217417176176    0.226069591600856    0.854909150702626  0.0000
  O2     O2        0.151391667077014    0.787280898695236    0.120229547056001  0.0000
  O2     O2        0.347259946854918    0.275351862765908    0.119321195150914  0.0000
  O3     O3        0.621542500142666    0.446335817524246    0.033203397706740  0.0000
  O3     O3        0.881375654793439    0.541595466643432    0.025004696487037  0.0000
  O2     O2        0.366689018255121    0.517505051959651    0.940497487011187  0.0000
  O2     O2        0.132154054898887    0.543457058656198    0.943345580838206  0.0000
  O2     O2        0.762596174785721    0.329834539677563    0.037795091764339  0.0000
  O1     O1        0.736034802186902    0.714312814441012    0.077108231834882  0.0000
  O2     O2        0.241538748914460    0.304697630266172    0.935198997969953  0.0000
  O2     O2        0.256936805189269    0.755766489527422    0.935783717697241  0.0000
