data_c01186.vasp
_audit_creation_method             Generated by GULP
_audit_author_name                 Salvador R. G. Balestra
_symmetry_space_group_name_H-M     'P 1             '
_symmetry_Int_Tables_number        1

loop_
_symmetry_equiv_pos_site_id
_symmetry_equiv_pos_as_xyz
_cell_length_a                       17.2120
_cell_length_b                        7.6603
_cell_length_c                       10.2517
_cell_angle_alpha                   90.3792
_cell_angle_beta                    90.2154
_cell_angle_gamma                   88.8740

loop_
_atom_site_label
_atom_site_type_symbol
_atom_site_fract_x
_atom_site_fract_y
_atom_site_fract_z
_atom_site_charge
  Ge     Ge        0.160189999999943    0.293909999999983    0.273440000000051  0.0000
  Ge     Ge        0.357430880876510    0.658825706505384    0.273833198047683  0.0000
  Ge     Ge        0.847388679717204    0.664160231675607    0.703085103931429  0.0000
  Ge     Ge        0.174104715151498    0.692698036167204    0.961178114801877  0.0000
  Si     Si        0.055917595021881    0.989951267087613    0.365914376356600  0.0000
  Si     Si        0.462054567828675    0.963796111902916    0.356343912969205  0.0000
  Si     Si        0.955580560930996    0.961505372777997    0.620762322342124  0.0000
  Si     Si        0.554595503799916    0.976832817853545    0.620042783734191  0.0000
  Si     Si        0.566005445016245    0.978218386514768    0.101826973668915  0.0000
  Si     Si        0.954363400471429    0.958715160507002    0.113650450937269  0.0000
  Si     Si        0.449890169817147    0.960088546334974    0.864709454096052  0.0000
  Si     Si        0.063121061709444    0.983723175500005    0.870838959398919  0.0000
  Si     Si        0.843493072317138    0.255561760198421    0.704809491850706  0.0000
  Si     Si        0.664822566332671    0.673067233446145    0.710491127293984  0.0000
  Si     Si        0.663823753533866    0.271391042844195    0.715038856470408  0.0000
  Si     Si        0.173701639446152    0.701592476666828    0.271118623580662  0.0000
  Si     Si        0.342050609711191    0.251467161725717    0.275781206490294  0.0000
  Si     Si        0.669727210587563    0.275105668111700    0.019655527347037  0.0000
  Si     Si        0.850704257857887    0.664292450471759    0.013420043226085  0.0000
  Si     Si        0.339837124226909    0.255096748313477    0.969563704752936  0.0000
  Si     Si        0.358779861650739    0.652300402091230    0.966858482182048  0.0000
  Si     Si        0.158998611140977    0.292719900754361    0.961662668189402  0.0000
  Si     Si        0.671308101354584    0.671890934681565    0.017286235868654  0.0000
  Si     Si        0.849111254418510    0.263018004622384    0.009692154034480  0.0000
  O3     O3        0.093502561379595    0.178253460408498    0.359262473777209  0.0000
  O3     O3        0.420249842739802    0.780214294235650    0.366202610961116  0.0000
  O2     O2        0.890955806308624    0.117260457744895    0.616653568245711  0.0000
  O2     O2        0.605159879450870    0.799135090934740    0.634660427231331  0.0000
  O3     O3        0.910458812033772    0.782163086693628    0.611329709717000  0.0000
  O2     O2        0.608023779825228    0.145144630895147    0.635887575263125  0.0000
  O2     O2        0.123806814072437    0.843484319457786    0.353275062504440  0.0000
  O2     O2        0.395729477217600    0.115303949378383    0.354835295527847  0.0000
  O2     O2        0.016346096009419    0.973791340312263    0.505464711602949  0.0000
  O2     O2        0.519820300013826    0.987838735625416    0.476347088270027  0.0000
  O2     O2        0.989669789924729    0.965198320127413    0.257282709569284  0.0000
  O2     O2        0.511388564436608    0.976114568286796    0.225183193109592  0.0000
  O2     O2        0.001800523911465    0.977573312068711    0.755807292540521  0.0000
  O2     O2        0.483655243245162    0.980169959521818    0.720849286134354  0.0000
  O2     O2        0.619135873941194    0.149688647439536    0.108567584070749  0.0000
  O2     O2        0.902734359847845    0.785772242078105    0.105145703592888  0.0000
  O2     O2        0.384310869909005    0.110211439291588    0.883969494111928  0.0000
  O3     O3        0.128397147580251    0.834372702593650    0.856138519248109  0.0000
  O2     O2        0.414197905138949    0.767546544193000    0.875940228792012  0.0000
  O2     O2        0.103949303076972    0.170995692786241    0.874388815905939  0.0000
  O2     O2        0.620418014690374    0.804667998174082    0.103850606960940  0.0000
  O2     O2        0.902500485574003    0.133870855947843    0.093955290654141  0.0000
  O2     O2        0.517416133080544    0.986342173109430    0.969319342761564  0.0000
  O2     O2        0.022607416290907    0.945108260933060    0.008687876528599  0.0000
  O3     O3        0.159807522557435    0.508330094518538    0.324743799625261  0.0000
  O3     O3        0.357865325926002    0.445977089733308    0.326038898492300  0.0000
  O3     O3        0.870475491747338    0.447855940655173    0.674282009185799  0.0000
  O2     O2        0.641008464869538    0.472390722019760    0.685086445645190  0.0000
  O3     O3        0.252626487474879    0.207001336918969    0.295538359216297  0.0000
  O3     O3        0.264136566093279    0.744241481242802    0.282731542327735  0.0000
  O2     O2        0.752434598469515    0.235890668966214    0.671196326667234  0.0000
  O3     O3        0.751421169349928    0.703341762993606    0.661584459624262  0.0000
  O3     O3        0.133723877096276    0.282709310172003    0.111405953332706  0.0000
  O3     O3        0.388253697963371    0.670145282605514    0.114121493757269  0.0000
  O2     O2        0.857408757421618    0.213578462518712    0.857661437403040  0.0000
  O2     O2        0.660854974017890    0.714945554612139    0.864794010386527  0.0000
  O3     O3        0.861537971109146    0.718827734715008    0.864752613517103  0.0000
  O2     O2        0.655692664233244    0.230878848267934    0.867954204671939  0.0000
  O3     O3        0.146316637837494    0.712891050799919    0.121495896046987  0.0000
  O2     O2        0.362241292551472    0.238637975125869    0.121488876953124  0.0000
  O2     O2        0.644369554500321    0.475681012957899    0.048061886510985  0.0000
  O2     O2        0.876583405151137    0.461550386315723    0.032153956208236  0.0000
  O2     O2        0.361763959523927    0.448816995165943    0.921197943409621  0.0000
  O3     O3        0.151722853553979    0.485650965091121    0.907183950500665  0.0000
  O2     O2        0.760210922882636    0.244811654518912    0.054597617816363  0.0000
  O2     O2        0.761246735001259    0.691052045757458    0.055489137248310  0.0000
  O2     O2        0.248459105403727    0.224738906275290    0.952400211095158  0.0000
  O3     O3        0.272029760217940    0.726768820326472    0.954426173468077  0.0000
