data_c01120.vasp
_audit_creation_method             Generated by GULP
_audit_author_name                 Salvador R. G. Balestra
_symmetry_space_group_name_H-M     'P 1             '
_symmetry_Int_Tables_number        1

loop_
_symmetry_equiv_pos_site_id
_symmetry_equiv_pos_as_xyz
_cell_length_a                       17.0674
_cell_length_b                        7.6152
_cell_length_c                       10.2951
_cell_angle_alpha                   90.3180
_cell_angle_beta                    89.9718
_cell_angle_gamma                   89.8309

loop_
_atom_site_label
_atom_site_type_symbol
_atom_site_fract_x
_atom_site_fract_y
_atom_site_fract_z
_atom_site_charge
  Ge     Ge        0.556730000000016    0.000000000000000    0.122129999999970  0.0000
  Ge     Ge        0.670563324567385    0.720524826390756    0.711334100222887  0.0000
  Ge     Ge        0.856491969384623    0.665489793104318    0.021734856574368  0.0000
  Ge     Ge        0.334716984668133    0.716482367903932    0.963801912401750  0.0000
  Si     Si        0.052008452886918    0.002125904590035    0.361350446762172  0.0000
  Si     Si        0.449314877216646    0.013368345224736    0.375424895154750  0.0000
  Si     Si        0.956231646273636    0.989634290010105    0.624544756525074  0.0000
  Si     Si        0.552166139839501    0.008098968283817    0.626094158864396  0.0000
  Si     Si        0.947217416231587    0.988375768658168    0.113981822293051  0.0000
  Si     Si        0.447149594404327    0.997288352407679    0.877293147633402  0.0000
  Si     Si        0.059190541698871    0.994043584979403    0.876338060525824  0.0000
  Si     Si        0.167018878737385    0.289595459400460    0.275325383713794  0.0000
  Si     Si        0.335326805532711    0.724292877184437    0.272916661148448  0.0000
  Si     Si        0.838480596055334    0.277678684005168    0.710854169532590  0.0000
  Si     Si        0.854141313590581    0.682185363025563    0.711524490883477  0.0000
  Si     Si        0.657888746536848    0.308670367447122    0.706176311736992  0.0000
  Si     Si        0.156132501162280    0.691834859831770    0.271067239417065  0.0000
  Si     Si        0.347647210538146    0.317391380002904    0.275132973889048  0.0000
  Si     Si        0.653313896799018    0.313324345783870    0.006212107699596  0.0000
  Si     Si        0.352696700378000    0.313403949565579    0.974135458257244  0.0000
  Si     Si        0.152291926963771    0.675572783720405    0.965486405554079  0.0000
  Si     Si        0.170107349153247    0.279959826524006    0.972776484221608  0.0000
  Si     Si        0.673341550329112    0.715523761510776    0.018498256985732  0.0000
  Si     Si        0.833331588274845    0.264129269669481    0.014977151559966  0.0000
  O2     O2        0.116390188280355    0.157091833339259    0.361460721903248  0.0000
  O2     O2        0.387726864551019    0.854271546558538    0.359402339776888  0.0000
  O2     O2        0.889502312028132    0.140334639030641    0.627637817583286  0.0000
  O3     O3        0.613181142655683    0.849711848021633    0.613472284233501  0.0000
  O2     O2        0.916254111429826    0.798336049503061    0.630703426016242  0.0000
  O2     O2        0.601444163805748    0.188695524278243    0.617825750410931  0.0000
  O2     O2        0.095093185163955    0.814327544254060    0.347353883230844  0.0000
  O2     O2        0.405225206890474    0.200785410497007    0.362156677304625  0.0000
  O2     O2        0.004687098022521    0.006405569520159    0.493608300436945  0.0000
  O2     O2        0.484689698014422    0.004289977580896    0.519183950664330  0.0000
  O2     O2        0.990367600210412    0.035110665018079    0.246866863431050  0.0000
  O3     O3        0.520744473362461    0.997054133178862    0.277185144572501  0.0000
  O2     O2        0.017371129721731    0.019342904469859    0.740235248715007  0.0000
  O2     O2        0.510885432722468    0.990897000129083    0.765477560504003  0.0000
  O3     O3        0.592343152769680    0.208051905402066    0.091291385843656  0.0000
  O3     O3        0.922676144865820    0.786242261446953    0.111193771061771  0.0000
  O2     O2        0.408866349668694    0.191137640109458    0.887855878752622  0.0000
  O2     O2        0.089600518565153    0.793409996279503    0.888376498948630  0.0000
  O3     O3        0.378986505013844    0.856459649345132    0.857131029316761  0.0000
  O2     O2        0.131412701704129    0.130092739311179    0.884404893897667  0.0000
  O3     O3        0.629202293192108    0.843071735890289    0.116390170515815  0.0000
  O2     O2        0.868682591262925    0.106149823353367    0.099658422011513  0.0000
  O3     O3        0.486208736233878    0.940144149883300    0.012332085776676  0.0000
  O2     O2        0.001278774243832    0.041512529067300    0.993110193431735  0.0000
  O2     O2        0.137210100090612    0.488369797203661    0.300589938110271  0.0000
  O2     O2        0.365156171027017    0.524047942673560    0.293505722120207  0.0000
  O2     O2        0.871273014593791    0.474230187960700    0.690785665116587  0.0000
  O3     O3        0.636536882124828    0.509452216408116    0.688274596009059  0.0000
  O2     O2        0.258238055242124    0.275513006742097    0.314509908773410  0.0000
  O2     O2        0.244332608003335    0.737673730214112    0.316114566964356  0.0000
  O2     O2        0.748162116529869    0.271105357016047    0.664575579542129  0.0000
  O3     O3        0.767410545792507    0.726869897974627    0.663574196840032  0.0000
  O2     O2        0.158655030409437    0.235511091035126    0.124423932678224  0.0000
  O3     O3        0.342184307829873    0.780758120252900    0.124308418070462  0.0000
  O2     O2        0.842332750256781    0.223994533795901    0.861540802166379  0.0000
  O3     O3        0.667546155357484    0.787196462435260    0.871695911315639  0.0000
  O3     O3        0.865062232707069    0.729048371794772    0.862045946078219  0.0000
  O2     O2        0.645812367341242    0.251923997056698    0.856261395530356  0.0000
  O2     O2        0.148172924026333    0.726942887094013    0.117762097486030  0.0000
  O2     O2        0.364177526324123    0.263536626836639    0.125715057731059  0.0000
  O2     O2        0.635300597668854    0.520350042526798    0.016820815903578  0.0000
  O3     O3        0.876415566338195    0.445943537890106    0.045360439207702  0.0000
  O3     O3        0.376459913598742    0.510800272132220    0.948498402632843  0.0000
  O2     O2        0.131291771605774    0.470076391338294    0.943991231587482  0.0000
  O2     O2        0.742062832659429    0.276549272130643    0.053561630620628  0.0000
  O3     O3        0.761595323038018    0.703656644589322    0.068281321413402  0.0000
  O2     O2        0.261720613520167    0.284945244901862    0.937304967012124  0.0000
  O3     O3        0.238472980350137    0.711337215068284    0.914918587300865  0.0000
