data_c01152.vasp
_audit_creation_method             Generated by GULP
_audit_author_name                 Salvador R. G. Balestra
_symmetry_space_group_name_H-M     'P 1             '
_symmetry_Int_Tables_number        1

loop_
_symmetry_equiv_pos_site_id
_symmetry_equiv_pos_as_xyz
_cell_length_a                       16.9213
_cell_length_b                        7.5814
_cell_length_c                       10.3841
_cell_angle_alpha                   89.4567
_cell_angle_beta                    90.0498
_cell_angle_gamma                   90.4602

loop_
_atom_site_label
_atom_site_type_symbol
_atom_site_fract_x
_atom_site_fract_y
_atom_site_fract_z
_atom_site_charge
  Ge     Ge        0.556730000000016    0.000000000000000    0.122129999999970  0.0000
  Ge     Ge        0.675406978393769    0.268829003233105    0.999445859996784  0.0000
  Ge     Ge        0.168851478108205    0.756080748641625    0.954280252680709  0.0000
  Ge     Ge        0.646554701455815    0.680060466812511    0.012225746864727  0.0000
  Si     Si        0.044188228826992    0.032626910994910    0.345566082463460  0.0000
  Si     Si        0.444555675644080    0.023488002694938    0.366729663574040  0.0000
  Si     Si        0.946163993307810    0.047836262073922    0.604427246113548  0.0000
  Si     Si        0.545061313996960    0.025845006048238    0.621418170278411  0.0000
  Si     Si        0.950271492105609    0.024025870067292    0.084092713866816  0.0000
  Si     Si        0.448731888378360    0.038361718902563    0.879648404151995  0.0000
  Si     Si        0.059655999121785    0.035602504940595    0.847968215754972  0.0000
  Si     Si        0.147823161727727    0.341305162024134    0.257306125555186  0.0000
  Si     Si        0.342624576696882    0.714573300929950    0.269841163218384  0.0000
  Si     Si        0.844752464772762    0.354913026916577    0.685667419517399  0.0000
  Si     Si        0.648087258665573    0.718168335050920    0.709930219297037  0.0000
  Si     Si        0.828649202278187    0.755345327515665    0.697898572884148  0.0000
  Si     Si        0.664925786176573    0.308159357127371    0.696243764594025  0.0000
  Si     Si        0.161716089885337    0.749808423455195    0.259949793311889  0.0000
  Si     Si        0.329617540563624    0.310780277551541    0.268049777523452  0.0000
  Si     Si        0.832722426620773    0.737942367775677    0.999762656519718  0.0000
  Si     Si        0.333388410233399    0.317022334400489    0.968292348213323  0.0000
  Si     Si        0.353599496472466    0.714802731793088    0.968241546594289  0.0000
  Si     Si        0.149385417370574    0.350518575684701    0.959350267727435  0.0000
  Si     Si        0.857941019637324    0.345211966140536    0.987557465137164  0.0000
  O2     O2        0.088136513538602    0.222756336645120    0.341940834114987  0.0000
  O2     O2        0.403452840030682    0.832017709590209    0.350971228132722  0.0000
  O2     O2        0.904859510459707    0.239231999836697    0.601786455584108  0.0000
  O2     O2        0.587532537789321    0.835384166344339    0.625350697878708  0.0000
  O2     O2        0.878441326074789    0.898819028700261    0.617821167000749  0.0000
  O2     O2        0.609981685603763    0.183269058277028    0.607200889557624  0.0000
  O2     O2        0.108664319421428    0.876581424899014    0.347208197737116  0.0000
  O2     O2        0.378426192117629    0.174868781041779    0.355033209858851  0.0000
  O2     O2        0.992731527546337    0.019004108678874    0.473490822577120  0.0000
  O2     O2        0.484680722153905    0.031815739622795    0.504495308250452  0.0000
  O2     O2        0.986616266786356    0.009416421835344    0.224931341312394  0.0000
  O3     O3        0.512860253411525    0.054194090816258    0.263494698650688  0.0000
  O2     O2        0.007306262707614    0.033019053644363    0.721434894604368  0.0000
  O2     O2        0.492334449343792    0.059797221878763    0.745724551782704  0.0000
  O1     O1        0.646290154070643    0.104800080818262    0.100113985031036  0.0000
  O2     O2        0.876690544686611    0.888786472733436    0.080605986913771  0.0000
  O2     O2        0.374022600999304    0.170501474281937    0.881218756613982  0.0000
  O3     O3        0.130260215460810    0.898380148566022    0.841877000949327  0.0000
  O2     O2        0.420377919806425    0.834669834181350    0.899562913981304  0.0000
  O2     O2        0.095432127671494    0.231167943603837    0.867555349977198  0.0000
  O1     O1        0.579199499487356    0.782473947174043    0.108362222011161  0.0000
  O2     O2        0.923987389907186    0.224933208480525    0.055779925166404  0.0000
  O3     O3        0.505324687305007    0.093560432321916    0.994339591548363  0.0000
  O2     O2        0.012091628553513    0.966566786364138    0.974684074747634  0.0000
  O2     O2        0.130767722257539    0.548252743505768    0.275533372698135  0.0000
  O2     O2        0.360062161793163    0.508940424874452    0.296940937546429  0.0000
  O2     O2        0.862901254667201    0.562376335547312    0.664541946928770  0.0000
  O2     O2        0.631557346392235    0.508043293926559    0.696277702417239  0.0000
  O2     O2        0.236923013554616    0.296356947142656    0.301448539478040  0.0000
  O2     O2        0.252772017307579    0.759958893326378    0.307318557872738  0.0000
  O2     O2        0.754839959743312    0.312395682282131    0.642734178028013  0.0000
  O2     O2        0.736467599981247    0.763377083501125    0.658902610921285  0.0000
  O2     O2        0.135376648381021    0.291667512313513    0.107891309156244  0.0000
  O2     O2        0.357478831006654    0.760240996681943    0.120044584478363  0.0000
  O2     O2        0.856860497546297    0.303623987203953    0.835034093946984  0.0000
  O3     O3        0.636545546664072    0.767676182397577    0.857493170832672  0.0000
  O2     O2        0.833537645953191    0.795091714308831    0.849390756685061  0.0000
  O3     O3        0.666162834900419    0.222735749812217    0.837164156952731  0.0000
  O3     O3        0.158128812486874    0.815153219538063    0.113299367964898  0.0000
  O2     O2        0.341947370345454    0.263144053831749    0.118501963843087  0.0000
  O1     O1        0.625872302930814    0.462213066331683    0.024500580639092  0.0000
  O2     O2        0.878568063357814    0.551017696681109    0.013203333573397  0.0000
  O2     O2        0.373898265852532    0.508943435238690    0.945642810139248  0.0000
  O3     O3        0.126679701748170    0.550145973068480    0.935409287798614  0.0000
  O3     O3        0.772840273190450    0.303674448521100    0.042608843951901  0.0000
  O3     O3        0.744977977430628    0.718503647587925    0.052173042275171  0.0000
  O2     O2        0.242010829270487    0.325604346660337    0.927795251877892  0.0000
  O3     O3        0.267856780644275    0.754555132860694    0.915159317957475  0.0000
