data_c01198.vasp
_audit_creation_method             Generated by GULP
_audit_author_name                 Salvador R. G. Balestra
_symmetry_space_group_name_H-M     'P 1             '
_symmetry_Int_Tables_number        1

loop_
_symmetry_equiv_pos_site_id
_symmetry_equiv_pos_as_xyz
_cell_length_a                       17.1202
_cell_length_b                        7.6580
_cell_length_c                       10.2139
_cell_angle_alpha                   88.9453
_cell_angle_beta                    90.2478
_cell_angle_gamma                   90.2941

loop_
_atom_site_label
_atom_site_type_symbol
_atom_site_fract_x
_atom_site_fract_y
_atom_site_fract_z
_atom_site_charge
  Ge     Ge        0.160189999999943    0.293909999999983    0.273440000000051  0.0000
  Ge     Ge        0.329985401648188    0.757477003113501    0.279701132468248  0.0000
  Ge     Ge        0.142808721620958    0.714231223929864    0.276102362029202  0.0000
  Ge     Ge        0.660311152055878    0.728783365110808    0.032121196661910  0.0000
  Si     Si        0.038934336222195    0.012648972214483    0.362582938271646  0.0000
  Si     Si        0.446856982995763    0.044981642805435    0.365113685937002  0.0000
  Si     Si        0.942598505588462    0.038487211231609    0.618103793443169  0.0000
  Si     Si        0.546620503073413    0.042521947963890    0.622291020401093  0.0000
  Si     Si        0.549304601963971    0.019283913815300    0.111057931338497  0.0000
  Si     Si        0.946256599299295    0.026371251519529    0.096736708831128  0.0000
  Si     Si        0.438800002358734    0.043094700000430    0.867698995807656  0.0000
  Si     Si        0.058398005820121    0.030351354034459    0.853776315828623  0.0000
  Si     Si        0.833727593964069    0.333638953742162    0.713792493315201  0.0000
  Si     Si        0.656848725180778    0.744778614757372    0.720543738447280  0.0000
  Si     Si        0.835349427578795    0.733574455300591    0.718427808759643  0.0000
  Si     Si        0.654030971643824    0.339732946667044    0.717375355849937  0.0000
  Si     Si        0.341593213677798    0.344716693693437    0.279398510283698  0.0000
  Si     Si        0.653455690708164    0.326064217012455    0.022060922552254  0.0000
  Si     Si        0.842522566015842    0.716019691550732    0.027264406191181  0.0000
  Si     Si        0.345103243428309    0.356090391886715    0.972761940639227  0.0000
  Si     Si        0.148639192558552    0.717411962861815    0.968118615146098  0.0000
  Si     Si        0.332932866813689    0.751128535590865    0.972661127574616  0.0000
  Si     Si        0.163249055046240    0.319109200978070    0.962142679285052  0.0000
  Si     Si        0.834746131709897    0.320800987070823    0.019522273357010  0.0000
  O3     O3        0.108939984800362    0.151491156854391    0.371918750673509  0.0000
  O3     O3        0.385754804318394    0.887291908662667    0.379670018612124  0.0000
  O2     O2        0.888573550173702    0.208367089637380    0.631383630905148  0.0000
  O2     O2        0.600467259977636    0.871702907261979    0.637496645024611  0.0000
  O2     O2        0.892829024501207    0.862846019756828    0.641285840752215  0.0000
  O2     O2        0.597710753480762    0.219080827695202    0.632133238956044  0.0000
  O3     O3        0.075098132251658    0.821549847354679    0.369718596808329  0.0000
  O2     O2        0.402939903942588    0.230851995062836    0.364406723765031  0.0000
  O2     O2        0.973116697757752    0.039503675944238    0.470564617321397  0.0000
  O2     O2        0.511056350884538    0.039892082434028    0.478120301069413  0.0000
  O2     O2        0.001959837379027    0.048061664102420    0.219356431895577  0.0000
  O2     O2        0.488223091831844    0.024335050305387    0.226250938474518  0.0000
  O2     O2        0.017886444809229    0.042636406189467    0.712470606858294  0.0000
  O2     O2        0.475326300519977    0.041736639920712    0.724023037990459  0.0000
  O2     O2        0.603192061079564    0.192372848266442    0.108969492603144  0.0000
  O2     O2        0.904548180214414    0.836715373266919    0.101866977184050  0.0000
  O2     O2        0.402631332260670    0.233959216774530    0.892006271885841  0.0000
  O2     O2        0.101588070183723    0.843934054006416    0.868160493053278  0.0000
  O2     O2        0.371747205322741    0.894151589678922    0.875223282210931  0.0000
  O2     O2        0.121165142689702    0.187238202022806    0.863132095117777  0.0000
  O3     O3        0.605124632561113    0.855126040186426    0.131476276156095  0.0000
  O2     O2        0.881466769651746    0.177830330841028    0.103401715210222  0.0000
  O2     O2        0.505609566786632    0.997921361534752    0.972594084076687  0.0000
  O2     O2        0.993158693812229    0.052483317099772    0.963191062490566  0.0000
  O1     O1        0.142894009888034    0.501435123391074    0.323924813660441  0.0000
  O3     O3        0.338779613213001    0.540050077833675    0.328710627042323  0.0000
  O2     O2        0.858827680526625    0.534600723015669    0.686804331316865  0.0000
  O2     O2        0.631546369420439    0.543177937962142    0.698692853408595  0.0000
  O3     O3        0.258318771232461    0.250509413895912    0.291743287832870  0.0000
  O1     O1        0.233505199101914    0.807874587029225    0.293222491215801  0.0000
  O2     O2        0.743251391155854    0.308607227586795    0.672932865377451  0.0000
  O2     O2        0.746462505283219    0.770053234388196    0.673111094510282  0.0000
  O3     O3        0.136779516317789    0.276671754739080    0.108937382173097  0.0000
  O3     O3        0.361505364449499    0.782444339050816    0.119333780715634  0.0000
  O2     O2        0.843678776026602    0.282559932268470    0.866067863951926  0.0000
  O3     O3        0.651497409893720    0.794969607593728    0.870770961182627  0.0000
  O2     O2        0.842383892114305    0.765533434093740    0.872979875526596  0.0000
  O2     O2        0.643437481705001    0.282917835639639    0.868682840397414  0.0000
  O3     O3        0.115217746035584    0.736454550669786    0.112296893185882  0.0000
  O2     O2        0.366047293022677    0.343881700766311    0.125986018970240  0.0000
  O3     O3        0.625438678557958    0.518568860318078    0.049991183435383  0.0000
  O2     O2        0.867756678140387    0.514115213355982    0.049598935670687  0.0000
  O2     O2        0.356444661763134    0.557219206822735    0.924976644134525  0.0000
  O2     O2        0.139635046266697    0.517546265625310    0.921932986662120  0.0000
  O2     O2        0.744542049462480    0.309087448289327    0.060876956256791  0.0000
  O3     O3        0.756528963767936    0.743567057690858    0.081315874592912  0.0000
  O2     O2        0.256247684426619    0.294885530010718    0.949659711249822  0.0000
  O2     O2        0.239580872264718    0.771314251005901    0.971457178797399  0.0000
