data_c01143.vasp
_audit_creation_method             Generated by GULP
_audit_author_name                 Salvador R. G. Balestra
_symmetry_space_group_name_H-M     'P 1             '
_symmetry_Int_Tables_number        1

loop_
_symmetry_equiv_pos_site_id
_symmetry_equiv_pos_as_xyz
_cell_length_a                       16.8740
_cell_length_b                        7.5958
_cell_length_c                       10.3898
_cell_angle_alpha                   89.4120
_cell_angle_beta                    90.0064
_cell_angle_gamma                   90.8854

loop_
_atom_site_label
_atom_site_type_symbol
_atom_site_fract_x
_atom_site_fract_y
_atom_site_fract_z
_atom_site_charge
  Ge     Ge        0.556730000000016    0.000000000000000    0.122129999999970  0.0000
  Ge     Ge        0.674951280237367    0.272488420679788    0.000714475089401  0.0000
  Ge     Ge        0.830069314340584    0.754143647077866    0.013106850846328  0.0000
  Ge     Ge        0.641556777758884    0.674748944860715    0.015482010461384  0.0000
  Si     Si        0.050018678705548    0.040333027108791    0.357362662338130  0.0000
  Si     Si        0.450950516914337    0.036146934020243    0.369897779600911  0.0000
  Si     Si        0.952136369856751    0.050348747738576    0.616903497164196  0.0000
  Si     Si        0.550570086941720    0.026372815660146    0.624668211694103  0.0000
  Si     Si        0.945063019366126    0.042310024664751    0.105377064738541  0.0000
  Si     Si        0.448866959945705    0.048108502421434    0.878332484065498  0.0000
  Si     Si        0.056025721679369    0.032831315149920    0.869209526351743  0.0000
  Si     Si        0.154707478317042    0.347892551062183    0.269657332477724  0.0000
  Si     Si        0.347309436736113    0.729854916259871    0.268288967359932  0.0000
  Si     Si        0.851352393826026    0.358603571629463    0.700324498834285  0.0000
  Si     Si        0.651576824585667    0.715274315157481    0.710790092122369  0.0000
  Si     Si        0.832446248524747    0.761985248927624    0.706726204851684  0.0000
  Si     Si        0.670702136202600    0.308667107085636    0.697577853688156  0.0000
  Si     Si        0.164256542008829    0.752566480151374    0.266004975015736  0.0000
  Si     Si        0.337417056237102    0.324530875435885    0.268669360593491  0.0000
  Si     Si        0.335952398933377    0.327303853504234    0.968793560880917  0.0000
  Si     Si        0.167226899969685    0.750507592850360    0.966006105396953  0.0000
  Si     Si        0.350884772488702    0.728546104743719    0.969679721402790  0.0000
  Si     Si        0.152463971204231    0.349628502501448    0.970171937691195  0.0000
  Si     Si        0.859201493321472    0.361894484443613    0.000083422310748  0.0000
  O2     O2        0.097338664073553    0.226444514431386    0.356523256453922  0.0000
  O2     O2        0.406205852074117    0.848781358490682    0.351637493372084  0.0000
  O2     O2        0.913078982658005    0.243811688660954    0.618987763571104  0.0000
  O2     O2        0.590667950751794    0.834160441549412    0.627988974365834  0.0000
  O2     O2        0.883224503290463    0.901546159588729    0.622283733274174  0.0000
  O2     O2        0.617933080524493    0.179457451008300    0.607645398997515  0.0000
  O2     O2        0.112692334935458    0.881944358751582    0.351522140209364  0.0000
  O2     O2        0.388760344313589    0.194378980580928    0.355646684111323  0.0000
  O2     O2        0.999939665186475    0.025901971608694    0.486390722782764  0.0000
  O2     O2        0.488500792858806    0.037212861944085    0.509806342334902  0.0000
  O2     O2        0.991409805501633    0.026681418627092    0.237771775493868  0.0000
  O3     O3        0.521173333853208    0.059629069712420    0.268791071400805  0.0000
  O2     O2        0.013420598946499    0.025123746951413    0.733135513901166  0.0000
  O2     O2        0.500232268680964    0.064245947924507    0.751255957454447  0.0000
  O1     O1        0.648128519925453    0.099377799325365    0.095080709659881  0.0000
  O3     O3        0.869575869066609    0.914761633826704    0.110465536320675  0.0000
  O2     O2        0.379493426243637    0.192856846244517    0.876249330388795  0.0000
  O2     O2        0.124627492884119    0.887336460102385    0.872020367764475  0.0000
  O2     O2        0.410623999793374    0.850768699898614    0.887396735860323  0.0000
  O2     O2        0.093936102493539    0.227727231049436    0.887340282262392  0.0000
  O1     O1        0.571242652760593    0.780994643681994    0.103992226732062  0.0000
  O2     O2        0.919289521133620    0.243224917289231    0.082060530428576  0.0000
  O3     O3        0.501846018791974    0.094413589877114    0.999684141647468  0.0000
  O2     O2        0.996569060435165    0.978244050344797    0.983875514431949  0.0000
  O2     O2        0.137299590093765    0.551891333226472    0.296610853878012  0.0000
  O2     O2        0.364601153464244    0.525288208024773    0.296095349845558  0.0000
  O2     O2        0.868756320171198    0.567611787082959    0.685476441886806  0.0000
  O2     O2        0.634955794635301    0.505573550496909    0.693412713733188  0.0000
  O2     O2        0.245131494410511    0.302450580731140    0.304727939280202  0.0000
  O2     O2        0.256858858179378    0.775885767985255    0.301359508628921  0.0000
  O2     O2        0.762287695132613    0.316214069549885    0.650582401436640  0.0000
  O2     O2        0.740603880959744    0.760448881596397    0.661477597760523  0.0000
  O2     O2        0.138202601234825    0.304926791787569    0.120329177097815  0.0000
  O2     O2        0.366413704624164    0.775393901599857    0.119114510459583  0.0000
  O2     O2        0.861142210826523    0.304011514796828    0.849765634105428  0.0000
  O3     O3        0.640017627112333    0.759712387381905    0.858843775672144  0.0000
  O3     O3        0.832751744382851    0.820679736441837    0.853441863718455  0.0000
  O3     O3        0.669751457855289    0.224531503266660    0.838770604768112  0.0000
  O2     O2        0.152855270236218    0.798151383196332    0.115230099765813  0.0000
  O2     O2        0.349546689951859    0.277760190008614    0.118856088784944  0.0000
  O1     O1        0.619038380199097    0.456913689201244    0.024759481402961  0.0000
  O3     O3        0.884474873595916    0.562155659104720    0.019620347775664  0.0000
  O2     O2        0.369571591462174    0.525023655187150    0.942712615727637  0.0000
  O2     O2        0.134146018341862    0.553516551191134    0.939707777434787  0.0000
  O3     O3        0.769501638475728    0.337096833715393    0.045376951406493  0.0000
  O1     O1        0.736243987467007    0.719852725247407    0.067636588178473  0.0000
  O2     O2        0.243340665871639    0.313440131136321    0.934836920695535  0.0000
  O2     O2        0.260213377280749    0.765337819922564    0.934009626473571  0.0000
