data_c01196.vasp
_audit_creation_method             Generated by GULP
_audit_author_name                 Salvador R. G. Balestra
_symmetry_space_group_name_H-M     'P 1             '
_symmetry_Int_Tables_number        1

loop_
_symmetry_equiv_pos_site_id
_symmetry_equiv_pos_as_xyz
_cell_length_a                       17.1277
_cell_length_b                        7.6328
_cell_length_c                       10.2540
_cell_angle_alpha                   88.8428
_cell_angle_beta                    90.3712
_cell_angle_gamma                   90.4019

loop_
_atom_site_label
_atom_site_type_symbol
_atom_site_fract_x
_atom_site_fract_y
_atom_site_fract_z
_atom_site_charge
  Ge     Ge        0.160189999999943    0.293909999999983    0.273440000000051  0.0000
  Ge     Ge        0.324805326168949    0.770021338471807    0.276153505734260  0.0000
  Ge     Ge        0.137022103369528    0.712166259337127    0.277093613680316  0.0000
  Ge     Ge        0.324128694739178    0.770496423077056    0.964358065386173  0.0000
  Si     Si        0.035414547541593    0.015182445167047    0.361268970711207  0.0000
  Si     Si        0.445086368546644    0.053506922930625    0.355673808822251  0.0000
  Si     Si        0.938990996101031    0.050347982641989    0.616230630521645  0.0000
  Si     Si        0.543022973411351    0.056736452349437    0.616124367920127  0.0000
  Si     Si        0.544718749987058    0.022941636963208    0.100049485663378  0.0000
  Si     Si        0.937757187212482    0.037294512343321    0.099955118343595  0.0000
  Si     Si        0.433087939086875    0.059675761862358    0.859645059203141  0.0000
  Si     Si        0.049277250699751    0.030020869528291    0.858428558934149  0.0000
  Si     Si        0.830788795775159    0.345453824881209    0.712528430733670  0.0000
  Si     Si        0.651905673123772    0.754086831828480    0.715259358373644  0.0000
  Si     Si        0.831578163317549    0.747824097543260    0.715307307383073  0.0000
  Si     Si        0.650832240747225    0.351713098062616    0.708580853502956  0.0000
  Si     Si        0.339967482692691    0.361463412351188    0.271544913911390  0.0000
  Si     Si        0.647566784159102    0.336334571240443    0.012901874381278  0.0000
  Si     Si        0.834541102274918    0.730282153014155    0.020250845001251  0.0000
  Si     Si        0.338627502984688    0.372015474016175    0.962395603494430  0.0000
  Si     Si        0.137808786500359    0.714894343751207    0.971415181491432  0.0000
  Si     Si        0.159641526234221    0.315199144751418    0.962035628661398  0.0000
  Si     Si        0.654549096630956    0.735185968744485    0.020081064612461  0.0000
  Si     Si        0.828118728280873    0.331427669421620    0.017086766627521  0.0000
  O3     O3        0.109093686143254    0.145630459413742    0.367162301686667  0.0000
  O3     O3        0.379011236637254    0.907041298602628    0.374767114082037  0.0000
  O2     O2        0.886335681192755    0.222771588071792    0.629908715010802  0.0000
  O2     O2        0.595362578848232    0.883807702742988    0.636264991480649  0.0000
  O2     O2        0.886515914007188    0.876392957990487    0.632466986715983  0.0000
  O2     O2        0.597024718083656    0.229706630101643    0.620445097584696  0.0000
  O3     O3        0.068765177943950    0.820869127590593    0.368863389258544  0.0000
  O2     O2        0.407537697384150    0.246031679089631    0.339592253218692  0.0000
  O2     O2        0.973026723788717    0.053598716588977    0.471867609348282  0.0000
  O2     O2        0.504861082920304    0.050719447896759    0.475116672728121  0.0000
  O2     O2        0.994536154852728    0.051650367677957    0.221621020050962  0.0000
  O2     O2        0.493000751825375    0.010371899329140    0.226869931899716  0.0000
  O2     O2        0.011301864127380    0.048208445445129    0.716117132378967  0.0000
  O2     O2        0.474608464812741    0.068079344180973    0.721052374939540  0.0000
  O2     O2        0.591378058227034    0.207490428180587    0.094169487446163  0.0000
  O2     O2        0.890665821086997    0.852716787000769    0.105178426102045  0.0000
  O2     O2        0.401604496079206    0.251634466017025    0.893534559078006  0.0000
  O2     O2        0.085540605371842    0.836119185647087    0.874281605940964  0.0000
  O3     O3        0.362921650416490    0.921750011295607    0.855688671670310  0.0000
  O2     O2        0.115780947587604    0.179777163409149    0.868077503910131  0.0000
  O2     O2        0.605456265158022    0.862853654510504    0.108879347829875  0.0000
  O2     O2        0.876670079671170    0.196564597954248    0.105675211952639  0.0000
  O2     O2        0.492278537709589    0.994202559963978    0.972294482954875  0.0000
  O2     O2        0.984679971863605    0.060717843911524    0.966830211105926  0.0000
  O1     O1        0.141764161879840    0.499605085909675    0.328086940191020  0.0000
  O3     O3        0.336062732564734    0.553009052454043    0.329330702125436  0.0000
  O2     O2        0.853472186060413    0.547970738972266    0.683869850394436  0.0000
  O2     O2        0.629067361564256    0.554408671110045    0.681713259142367  0.0000
  O3     O3        0.259217926449820    0.256458988851417    0.289646459447412  0.0000
  O1     O1        0.226964656956585    0.812116746729019    0.287491935924640  0.0000
  O2     O2        0.740631656300694    0.316209936656030    0.672417226955233  0.0000
  O2     O2        0.741962930712035    0.787924329573885    0.676480669132162  0.0000
  O3     O3        0.135831571001301    0.276827295117734    0.110042847639047  0.0000
  O1     O1        0.357019161233450    0.802725109919567    0.119447730945847  0.0000
  O2     O2        0.841369486228351    0.295942759324097    0.864663013433442  0.0000
  O2     O2        0.642428714109371    0.787204167880437    0.868479237661558  0.0000
  O2     O2        0.845417043590124    0.781207174902320    0.868181321997307  0.0000
  O2     O2        0.635624888381658    0.300978138439463    0.859696873858802  0.0000
  O3     O3        0.104269056463000    0.720238964556583    0.116058624643021  0.0000
  O2     O2        0.355833127936785    0.387879241391515    0.116583103760749  0.0000
  O2     O2        0.625561672542291    0.535803187775689    0.045235327899833  0.0000
  O2     O2        0.856827456013600    0.528201306790876    0.048386313619879  0.0000
  O3     O3        0.344499591129978    0.565474669088613    0.903342454510632  0.0000
  O2     O2        0.137241086402666    0.514944710765004    0.921009146064070  0.0000
  O2     O2        0.737419402274934    0.304028634147707    0.051920523700551  0.0000
  O2     O2        0.744901372400460    0.757930260705950    0.059702344816340  0.0000
  O2     O2        0.252304640798036    0.288682795010210    0.943538162598047  0.0000
  O3     O3        0.224587382053583    0.791305299014100    0.975083484427741  0.0000
