data_c01121.vasp
_audit_creation_method             Generated by GULP
_audit_author_name                 Salvador R. G. Balestra
_symmetry_space_group_name_H-M     'P 1             '
_symmetry_Int_Tables_number        1

loop_
_symmetry_equiv_pos_site_id
_symmetry_equiv_pos_as_xyz
_cell_length_a                       16.9737
_cell_length_b                        7.5946
_cell_length_c                       10.3490
_cell_angle_alpha                   89.7965
_cell_angle_beta                    90.5557
_cell_angle_gamma                   90.4085

loop_
_atom_site_label
_atom_site_type_symbol
_atom_site_fract_x
_atom_site_fract_y
_atom_site_fract_z
_atom_site_charge
  Ge     Ge        0.556730000000016    0.000000000000000    0.122129999999970  0.0000
  Ge     Ge        0.644394732510344    0.680528166174808    0.704908236796271  0.0000
  Ge     Ge        0.826226017284629    0.738333004362765    0.010808144340367  0.0000
  Ge     Ge        0.142364488021818    0.344975960113057    0.967420047482567  0.0000
  Si     Si        0.048088683634105    0.020108065433294    0.363851441650683  0.0000
  Si     Si        0.448377439267005    0.012703308356256    0.369951703587273  0.0000
  Si     Si        0.946679302293247    0.013004407516482    0.619234845757708  0.0000
  Si     Si        0.541514404162319    0.995635589037954    0.630178374635002  0.0000
  Si     Si        0.939874558041548    0.021498898447998    0.113412395665393  0.0000
  Si     Si        0.440839122713389    0.029927254070393    0.884105820996224  0.0000
  Si     Si        0.046721454518008    0.024312215678795    0.873074319418700  0.0000
  Si     Si        0.150789284000902    0.326748261690610    0.274810491184717  0.0000
  Si     Si        0.344223997231601    0.706460636989631    0.276871033795316  0.0000
  Si     Si        0.846307779550280    0.320909130781531    0.712795303454600  0.0000
  Si     Si        0.827089354794686    0.726596240064682    0.701568956626381  0.0000
  Si     Si        0.664569101719427    0.269948549004266    0.715175185907689  0.0000
  Si     Si        0.162741845124259    0.733209637703939    0.278061753161920  0.0000
  Si     Si        0.331271805953286    0.302335584291674    0.266615929910851  0.0000
  Si     Si        0.671123244993836    0.281742036594401    0.014441172626555  0.0000
  Si     Si        0.327049700029381    0.315032972287582    0.962999871423811  0.0000
  Si     Si        0.161872374303642    0.750490951532491    0.976532657495715  0.0000
  Si     Si        0.344354000210725    0.712634140363048    0.976752916651074  0.0000
  Si     Si        0.643719779020870    0.677408401756363    0.013346863307677  0.0000
  Si     Si        0.853829396836842    0.339965350396733    0.010607989812704  0.0000
  O2     O2        0.093925661537319    0.206977695641024    0.363099847840906  0.0000
  O2     O2        0.404165009016799    0.823370462584479    0.361469826739178  0.0000
  O2     O2        0.904320612507304    0.202584651771069    0.628006811174440  0.0000
  O3     O3        0.573686478947510    0.798837801172035    0.621775804496823  0.0000
  O2     O2        0.881933968163219    0.857127317167508    0.618157600614852  0.0000
  O2     O2        0.619074111703691    0.121994878041838    0.631829026798030  0.0000
  O2     O2        0.111477425976221    0.862172969062210    0.365595442298084  0.0000
  O2     O2        0.385914656997720    0.166688683569624    0.342612960914162  0.0000
  O2     O2        0.994912330835852    0.006684553982667    0.488633846375958  0.0000
  O2     O2        0.483325873506455    0.038887597086305    0.512456573302109  0.0000
  O2     O2        0.991815337447686    0.999855694979633    0.240293622886864  0.0000
  O3     O3        0.521309482458996    0.021720404417334    0.274987643591478  0.0000
  O2     O2        0.007918141792126    0.981759379044220    0.735862343054843  0.0000
  O2     O2        0.493238660337592    0.034430717084658    0.758507035752853  0.0000
  O3     O3        0.638862290779614    0.136015111734180    0.109782227068122  0.0000
  O3     O3        0.866046373302939    0.891772902239477    0.114092731832482  0.0000
  O2     O2        0.373880821273195    0.179377215693921    0.874629624711354  0.0000
  O2     O2        0.125412199965536    0.907775747317242    0.892318654528640  0.0000
  O2     O2        0.401456885651066    0.835743383828063    0.893637382734818  0.0000
  O3     O3        0.073138249988833    0.226491965709258    0.881305607632436  0.0000
  O3     O3        0.580744119399048    0.783249887732539    0.095553016586665  0.0000
  O2     O2        0.910395275784269    0.223031866594162    0.101532879111636  0.0000
  O3     O3        0.490618928411638    0.077526676254908    0.010065700054399  0.0000
  O2     O2        0.987590857099793    0.964975610952753    0.985927133128683  0.0000
  O2     O2        0.133517192300866    0.532719271593348    0.299254758144171  0.0000
  O2     O2        0.362023046734567    0.500056908717099    0.297145726926590  0.0000
  O2     O2        0.861553666330060    0.528149234721781    0.690205241721132  0.0000
  O3     O3        0.626609832390917    0.458133736667734    0.687471820728891  0.0000
  O2     O2        0.241249299963578    0.283384042108880    0.312825491356630  0.0000
  O2     O2        0.254810567808768    0.749030988043983    0.317076736341944  0.0000
  O2     O2        0.756308759132988    0.273899301170850    0.674633783784786  0.0000
  O3     O3        0.738226432417174    0.726401904064558    0.649230495283227  0.0000
  O3     O3        0.133880349233667    0.280652712924074    0.126706381266302  0.0000
  O2     O2        0.359154214090432    0.757949993628162    0.127495031710128  0.0000
  O2     O2        0.864365136440813    0.275145013863981    0.862652785173934  0.0000
  O3     O3        0.637215754624896    0.738761356153536    0.864891298745084  0.0000
  O3     O3        0.826682801650019    0.791979858881013    0.849030226018612  0.0000
  O2     O2        0.660398795890715    0.217180150991719    0.866437558063327  0.0000
  O2     O2        0.152684611417812    0.789351809838603    0.128948153518732  0.0000
  O2     O2        0.332761214165149    0.261657925811111    0.114292246198040  0.0000
  O2     O2        0.626300220496384    0.468252348210362    0.027284117919193  0.0000
  O3     O3        0.876518546151777    0.541188459564620    0.027962445357699  0.0000
  O2     O2        0.364567378716190    0.510507989544442    0.946201200645119  0.0000
  O3     O3        0.121295249766069    0.565071292382953    0.945736606691931  0.0000
  O2     O2        0.762709865798114    0.314439124518844    0.048033152721268  0.0000
  O3     O3        0.731062139763885    0.720194843050836    0.064108116604316  0.0000
  O3     O3        0.237376266509720    0.311464189457273    0.917150239697404  0.0000
  O2     O2        0.253668417543005    0.745370660054335    0.940418318804949  0.0000
