data_c01172.vasp
_audit_creation_method             Generated by GULP
_audit_author_name                 Salvador R. G. Balestra
_symmetry_space_group_name_H-M     'P 1             '
_symmetry_Int_Tables_number        1

loop_
_symmetry_equiv_pos_site_id
_symmetry_equiv_pos_as_xyz
_cell_length_a                       17.2117
_cell_length_b                        7.6580
_cell_length_c                       10.1998
_cell_angle_alpha                   90.0219
_cell_angle_beta                    90.3618
_cell_angle_gamma                   90.2268

loop_
_atom_site_label
_atom_site_type_symbol
_atom_site_fract_x
_atom_site_fract_y
_atom_site_fract_z
_atom_site_charge
  Ge     Ge        0.160189999999943    0.293909999999983    0.273440000000051  0.0000
  Ge     Ge        0.330182620236460    0.738425765154426    0.276867646614738  0.0000
  Ge     Ge        0.833253538028280    0.323029615313725    0.711854918348866  0.0000
  Ge     Ge        0.649697450900179    0.342812384265567    0.028917728611903  0.0000
  Si     Si        0.043846264545408    0.005930308861619    0.355807498026480  0.0000
  Si     Si        0.447282841569555    0.025851723295754    0.359623848566584  0.0000
  Si     Si        0.945844346796012    0.024627756985672    0.613562743120585  0.0000
  Si     Si        0.544477421272429    0.030551820062608    0.620305919927953  0.0000
  Si     Si        0.548012163429546    0.029248883004848    0.106686552548568  0.0000
  Si     Si        0.941689187148409    0.032505025087412    0.099706372353353  0.0000
  Si     Si        0.435870756386311    0.028250109105483    0.863179488058701  0.0000
  Si     Si        0.053780491894953    0.013115554051072    0.859956347321247  0.0000
  Si     Si        0.655659395115986    0.735742660787481    0.716524407458787  0.0000
  Si     Si        0.834866724944870    0.732180967556578    0.712683774637020  0.0000
  Si     Si        0.652346530672226    0.331257351405657    0.714195080500648  0.0000
  Si     Si        0.147401020453373    0.701138303381428    0.275703982690104  0.0000
  Si     Si        0.343590211702746    0.330752244639080    0.273661192241971  0.0000
  Si     Si        0.839468711926201    0.724164413823581    0.017968182696174  0.0000
  Si     Si        0.339945570314697    0.337572666107431    0.966459807457094  0.0000
  Si     Si        0.149973530783188    0.702749202307630    0.967607825330115  0.0000
  Si     Si        0.328372698750091    0.737260842368813    0.965186584262109  0.0000
  Si     Si        0.161062420390129    0.303587846852927    0.961791935406150  0.0000
  Si     Si        0.660072462042283    0.744716267075560    0.022686186867304  0.0000
  Si     Si        0.830701312710813    0.325415696037287    0.025784917215546  0.0000
  O3     O3        0.109326594125315    0.153260830723463    0.371556028488789  0.0000
  O3     O3        0.382544231462694    0.877624477849734    0.375376138455630  0.0000
  O3     O3        0.899589176981011    0.203637875867755    0.626097462934541  0.0000
  O2     O2        0.600994351862631    0.864236479350791    0.634056676946820  0.0000
  O2     O2        0.884850607300305    0.867225283584862    0.629226222457042  0.0000
  O2     O2        0.591473719799910    0.210797295115386    0.635401409316461  0.0000
  O2     O2        0.085782470176148    0.818515393350720    0.353083276958247  0.0000
  O2     O2        0.404925567624488    0.212581366868198    0.351956216091237  0.0000
  O2     O2        0.981441443370077    0.010169346303232    0.469952140839147  0.0000
  O2     O2        0.509391155478297    0.026360950213663    0.475524835620876  0.0000
  O2     O2        0.000752320148852    0.044438532619276    0.219175720330877  0.0000
  O2     O2        0.492635440456686    0.983328368718492    0.226083449255788  0.0000
  O2     O2        0.016790972661875    0.011667993957958    0.716152803075872  0.0000
  O2     O2        0.473216764906695    0.020488681358605    0.720609734429051  0.0000
  O3     O3        0.583611758763846    0.221748183953706    0.116519418682408  0.0000
  O2     O2        0.894536496804162    0.849499281893558    0.104369668232501  0.0000
  O2     O2        0.396061439163930    0.217522516823049    0.880338429852698  0.0000
  O2     O2        0.092556122479123    0.824640036457663    0.884576775518628  0.0000
  O2     O2        0.373411382483539    0.871658492347836    0.871669977289220  0.0000
  O2     O2        0.116606060999435    0.169706691739053    0.865735314761995  0.0000
  O2     O2        0.619988862837361    0.894862751812763    0.107168917865672  0.0000
  O2     O2        0.883920681133695    0.196131737664014    0.111382798826324  0.0000
  O2     O2        0.502068425676513    0.001339080317023    0.971239556848680  0.0000
  O2     O2        0.987074285341041    0.050805620418972    0.964043698269914  0.0000
  O3     O3        0.125954370338087    0.501873368618267    0.299089967914223  0.0000
  O3     O3        0.364729523445793    0.529979130505259    0.298978697922935  0.0000
  O3     O3        0.861124279608438    0.537122863855280    0.686793662365714  0.0000
  O2     O2        0.629434222416278    0.535288936605319    0.695367604300027  0.0000
  O3     O3        0.256806160243275    0.287037701033011    0.318609072225505  0.0000
  O3     O3        0.234186611734009    0.743433508622197    0.323762979431509  0.0000
  O3     O3        0.738022420896341    0.298644091537701    0.659624904118614  0.0000
  O2     O2        0.744739916919071    0.757669540066428    0.671174607321237  0.0000
  O3     O3        0.151213840396088    0.239530188311681    0.109732676088453  0.0000
  O3     O3        0.337424783465389    0.798239555449119    0.114172348917781  0.0000
  O3     O3        0.832646650482507    0.266997095878960    0.875003964785700  0.0000
  O2     O2        0.650329821188042    0.786883534923484    0.868728856789382  0.0000
  O2     O2        0.846696741839939    0.778265732623021    0.866173880718256  0.0000
  O3     O3        0.646949638530438    0.282478723921638    0.866471837170330  0.0000
  O2     O2        0.143145647908217    0.747357975027350    0.120739139732764  0.0000
  O2     O2        0.349511003824505    0.286850603250405    0.118454720979581  0.0000
  O3     O3        0.623357574466001    0.557637429278615    0.051965435754582  0.0000
  O2     O2        0.864640492629357    0.523360634311317    0.037580845389549  0.0000
  O2     O2        0.362268487211635    0.541184570508648    0.946752401930306  0.0000
  O2     O2        0.127308885550211    0.499848094514862    0.943882068910509  0.0000
  O3     O3        0.744384261706804    0.316838544961590    0.081520064909615  0.0000
  O2     O2        0.750721897119348    0.745030478202136    0.063049576241635  0.0000
  O2     O2        0.251431829076794    0.304106256630214    0.922108129964772  0.0000
  O2     O2        0.238035026442701    0.737952210971716    0.922467256107070  0.0000
