data_c01157.vasp
_audit_creation_method             Generated by GULP
_audit_author_name                 Salvador R. G. Balestra
_symmetry_space_group_name_H-M     'P 1             '
_symmetry_Int_Tables_number        1

loop_
_symmetry_equiv_pos_site_id
_symmetry_equiv_pos_as_xyz
_cell_length_a                       16.8953
_cell_length_b                        7.6242
_cell_length_c                       10.3690
_cell_angle_alpha                   89.7547
_cell_angle_beta                    90.3263
_cell_angle_gamma                   90.0753

loop_
_atom_site_label
_atom_site_type_symbol
_atom_site_fract_x
_atom_site_fract_y
_atom_site_fract_z
_atom_site_charge
  Ge     Ge        0.556730000000016    0.000000000000000    0.122129999999970  0.0000
  Ge     Ge        0.832606386754596    0.724710408516656    0.022221539827228  0.0000
  Ge     Ge        0.330072222959147    0.284472004919121    0.976678655550941  0.0000
  Ge     Ge        0.167745769519088    0.732608922895448    0.980245424407040  0.0000
  Si     Si        0.053624784168214    0.017382415127827    0.371880516181035  0.0000
  Si     Si        0.453150915254414    0.000484163503298    0.376885531952291  0.0000
  Si     Si        0.950583404901973    0.016897589127996    0.625843149050336  0.0000
  Si     Si        0.551058778131504    0.996208741346208    0.636064440830924  0.0000
  Si     Si        0.946989260589629    0.005920376268726    0.119930663237173  0.0000
  Si     Si        0.443378094040884    0.005332229638980    0.883787975926197  0.0000
  Si     Si        0.053732565365948    0.014642652370119    0.880984957096623  0.0000
  Si     Si        0.155422989297980    0.326387073315163    0.284911505208365  0.0000
  Si     Si        0.350071217028084    0.692343777031115    0.279969717481662  0.0000
  Si     Si        0.849899923850430    0.322522703930172    0.714145658696396  0.0000
  Si     Si        0.654476477375705    0.686902420970836    0.717376745249763  0.0000
  Si     Si        0.835584096645654    0.726666778559181    0.715447174558180  0.0000
  Si     Si        0.667271037219859    0.285382183497499    0.716553693818690  0.0000
  Si     Si        0.168821123431588    0.730084763372016    0.286098145857021  0.0000
  Si     Si        0.336318473857509    0.287946229442842    0.282595403253327  0.0000
  Si     Si        0.673187988161547    0.280285185232797    0.015828345300970  0.0000
  Si     Si        0.354046495922275    0.683281746546980    0.978798729326864  0.0000
  Si     Si        0.144268012464859    0.333571630828161    0.983146856602362  0.0000
  Si     Si        0.648114072804305    0.675242437340076    0.019826755506669  0.0000
  Si     Si        0.857612231545784    0.324891312077760    0.012367824295417  0.0000
  O2     O2        0.096814493615854    0.206509809519355    0.369149617749663  0.0000
  O2     O2        0.411701448250868    0.810792756832110    0.358940525488557  0.0000
  O2     O2        0.906047772651093    0.204455459750831    0.625197040568229  0.0000
  O2     O2        0.594352083267514    0.807702296428803    0.636023931308944  0.0000
  O2     O2        0.886709962256479    0.859388284474162    0.628271904278233  0.0000
  O2     O2        0.616640425957233    0.150895781695444    0.630205002643537  0.0000
  O2     O2        0.118589360312366    0.862050049566320    0.374348747347100  0.0000
  O2     O2        0.388571282442709    0.155807455393995    0.368572367705799  0.0000
  O2     O2        0.001456910294439    0.001889542847693    0.498199022339561  0.0000
  O2     O2        0.492218852182518    0.007818567028446    0.516778811456939  0.0000
  O2     O2        0.996757466415365    0.996494121729605    0.249683189570761  0.0000
  O3     O3        0.522362532202935    0.026430749763236    0.275070704677663  0.0000
  O2     O2        0.009369024032699    0.001233971747844    0.746319008257103  0.0000
  O2     O2        0.499476006968542    0.021325109915876    0.762655008379121  0.0000
  O3     O3        0.639373400440848    0.132405837461636    0.106834737442317  0.0000
  O3     O3        0.874998372662121    0.872039615469263    0.126230543992534  0.0000
  O3     O3        0.368003046502500    0.131228879407051    0.873280150138779  0.0000
  O3     O3        0.129212163557952    0.889230603326434    0.879382183250002  0.0000
  O2     O2        0.415116417715771    0.803814071490482    0.899909641611355  0.0000
  O2     O2        0.080925226176512    0.214203621327878    0.907675710725072  0.0000
  O3     O3        0.582948286102658    0.784015753020456    0.094829000527185  0.0000
  O2     O2        0.914196918646113    0.202642907111018    0.098491428403709  0.0000
  O3     O3        0.488391446301577    0.072400614836286    0.011249853740435  0.0000
  O2     O2        0.999492469492765    0.942636365114948    0.998197426010824  0.0000
  O2     O2        0.136163624252575    0.531794274896434    0.305187290972537  0.0000
  O2     O2        0.369455888000008    0.486387354209958    0.298965024395633  0.0000
  O2     O2        0.867642306014807    0.528623522546648    0.694354522240610  0.0000
  O2     O2        0.635081303985755    0.482482954056320    0.692021259804180  0.0000
  O2     O2        0.245173954096328    0.284677410552243    0.328973719044292  0.0000
  O2     O2        0.261324621669977    0.734509805745528    0.327254948097782  0.0000
  O2     O2        0.759263528992264    0.278308328457451    0.677032456700439  0.0000
  O2     O2        0.743492942623954    0.732107445365701    0.672588276386680  0.0000
  O2     O2        0.144788619226034    0.279457139056089    0.134634886837143  0.0000
  O2     O2        0.358734911921200    0.740768272285528    0.129392209276423  0.0000
  O2     O2        0.868234400155835    0.271527324127665    0.862507328030025  0.0000
  O2     O2        0.645385165603364    0.729039607787954    0.868424043647044  0.0000
  O3     O3        0.841542071316478    0.786078178503008    0.862576170565234  0.0000
  O2     O2        0.659838031534541    0.228537224857348    0.865924079875608  0.0000
  O3     O3        0.161829730975974    0.794041919027436    0.139659419393956  0.0000
  O3     O3        0.339586887909557    0.223323203616960    0.136518798965937  0.0000
  O2     O2        0.631085374071647    0.468085856950105    0.038901444033904  0.0000
  O3     O3        0.879380002583958    0.523937591326842    0.038054574424719  0.0000
  O3     O3        0.378028248317411    0.483713580319940    0.959614120401794  0.0000
  O3     O3        0.119750106087181    0.533450160667244    0.963884664552997  0.0000
  O2     O2        0.765810522281903    0.299075214762498    0.048148709407213  0.0000
  O3     O3        0.735544110636201    0.718761284018202    0.070165817195972  0.0000
  O3     O3        0.232357777538639    0.304515551397744    0.932093484493534  0.0000
  O3     O3        0.264497744033569    0.709995721983611    0.932824958357863  0.0000
