data_c01147.vasp
_audit_creation_method             Generated by GULP
_audit_author_name                 Salvador R. G. Balestra
_symmetry_space_group_name_H-M     'P 1             '
_symmetry_Int_Tables_number        1

loop_
_symmetry_equiv_pos_site_id
_symmetry_equiv_pos_as_xyz
_cell_length_a                       16.9640
_cell_length_b                        7.5854
_cell_length_c                       10.3662
_cell_angle_alpha                   90.0187
_cell_angle_beta                    89.7689
_cell_angle_gamma                   89.9268

loop_
_atom_site_label
_atom_site_type_symbol
_atom_site_fract_x
_atom_site_fract_y
_atom_site_fract_z
_atom_site_charge
  Ge     Ge        0.556730000000016    0.000000000000000    0.122129999999970  0.0000
  Ge     Ge        0.649389819922810    0.327137557686330    0.020329825638069  0.0000
  Ge     Ge        0.356082461034899    0.318780538445931    0.962047694984504  0.0000
  Ge     Ge        0.167781251882297    0.272120115288677    0.955133502488565  0.0000
  Si     Si        0.047012458716422    0.977701179886764    0.353837464707595  0.0000
  Si     Si        0.447337145892740    0.986045026173737    0.370304000106334  0.0000
  Si     Si        0.947498783948544    0.969928253462664    0.612011029487634  0.0000
  Si     Si        0.547032987163776    0.983927745714557    0.626407131319150  0.0000
  Si     Si        0.948567109256360    0.989719670632455    0.096742337469130  0.0000
  Si     Si        0.447535657898823    0.991988257138472    0.878713078333049  0.0000
  Si     Si        0.058452061339883    0.985300045518676    0.857657886507773  0.0000
  Si     Si        0.165041786176546    0.262868220763810    0.262267957968906  0.0000
  Si     Si        0.331405936405264    0.701661645995340    0.275974395331671  0.0000
  Si     Si        0.830885087079445    0.260424306092307    0.706954070550320  0.0000
  Si     Si        0.665174076373816    0.700630101400586    0.704831329216754  0.0000
  Si     Si        0.846199502004119    0.663048327817222    0.693839943542765  0.0000
  Si     Si        0.649884890851204    0.292857309710279    0.715718206280628  0.0000
  Si     Si        0.150284715987164    0.671130165344395    0.268697383382041  0.0000
  Si     Si        0.346068938020422    0.295168026753330    0.269109667846658  0.0000
  Si     Si        0.855258220543081    0.671931547020977    0.993211333839551  0.0000
  Si     Si        0.150070151589215    0.672792908341037    0.971183128038528  0.0000
  Si     Si        0.333739952623488    0.718544993750115    0.975943859332650  0.0000
  Si     Si        0.673489139543729    0.730462634233160    0.004340550954177  0.0000
  Si     Si        0.834318502265938    0.277166195125154    0.009461513454988  0.0000
  O2     O2        0.112127579337965    0.132254167676908    0.348187272544127  0.0000
  O2     O2        0.381403658672981    0.832560043897194    0.365108325718137  0.0000
  O2     O2        0.881485470923965    0.121754366410171    0.625084301843454  0.0000
  O2     O2        0.612759524778423    0.829232213031279    0.616154359872630  0.0000
  O2     O2        0.903852587410090    0.780541040559567    0.605182992706152  0.0000
  O2     O2        0.589790131235771    0.173905122218238    0.633041823233060  0.0000
  O2     O2        0.090364183776397    0.787148215822374    0.354460037596186  0.0000
  O2     O2        0.406188086727582    0.176356405736366    0.351791491959593  0.0000
  O2     O2        0.997350060508147    0.999518691330598    0.483621285747297  0.0000
  O2     O2        0.489053647560898    0.981789320878343    0.507082141525438  0.0000
  O2     O2        0.987411314974735    0.995210107473770    0.235763606067587  0.0000
  O3     O3        0.515508916263743    0.949225767435931    0.267343129638087  0.0000
  O2     O2        0.005856530801140    0.977627335484885    0.732049836817005  0.0000
  O2     O2        0.492624845771155    0.942800197742315    0.748953688379937  0.0000
  O1     O1        0.583114668235038    0.217350192799307    0.114348008608737  0.0000
  O2     O2        0.914858897341130    0.794000329865868    0.072215582892140  0.0000
  O3     O3        0.427329941394158    0.198005049714461    0.881859176273298  0.0000
  O2     O2        0.099676238288335    0.796575790512215    0.878278134100283  0.0000
  O2     O2        0.365304293686079    0.881344854041168    0.891206680298979  0.0000
  O3     O3        0.124315078157585    0.133135143165686    0.845990802028775  0.0000
  O3     O3        0.644068284040176    0.886008569060243    0.093413924181506  0.0000
  O2     O2        0.879460763023652    0.134468199810088    0.095589827087563  0.0000
  O3     O3        0.496813641041136    0.928342538101721    0.000365885123702  0.0000
  O2     O2        0.009953601307016    0.043153998358542    0.985378535105941  0.0000
  O2     O2        0.133199010534798    0.462867382585972    0.281545888887667  0.0000
  O2     O2        0.363036887280826    0.502293113411539    0.293979009969336  0.0000
  O2     O2        0.862680793405409    0.455895791267537    0.672547044744006  0.0000
  O2     O2        0.633251797702967    0.500728804351680    0.693126716920222  0.0000
  O2     O2        0.255932719904268    0.251931737295203    0.308524835250163  0.0000
  O2     O2        0.239327714905047    0.711474922578224    0.314576144366608  0.0000
  O2     O2        0.738899107246063    0.246368283312714    0.670060521329133  0.0000
  O2     O2        0.755859094199181    0.707040785761796    0.657717723002305  0.0000
  O3     O3        0.163081652394206    0.204391833313194    0.114355660142638  0.0000
  O2     O2        0.340861379365308    0.763058272367828    0.128062435197760  0.0000
  O2     O2        0.837644767456043    0.220538163917392    0.859015891647721  0.0000
  O2     O2        0.661144491723109    0.768918491512085    0.851863675856858  0.0000
  O2     O2        0.864380854298080    0.714770092485105    0.841633482078292  0.0000
  O3     O3        0.636373917490905    0.248910627311099    0.864477535923678  0.0000
  O2     O2        0.137871498733108    0.730410212371869    0.120399795301714  0.0000
  O3     O3        0.362258991264480    0.249905327948460    0.121271837109839  0.0000
  O3     O3        0.629430467070250    0.548139217721332    0.035894822892372  0.0000
  O2     O2        0.876227199624660    0.468582195982651    0.022885199626198  0.0000
  O3     O3        0.380271643714820    0.539051617160821    0.947723139164193  0.0000
  O3     O3        0.122772838486090    0.476147197269386    0.947463656554240  0.0000
  O3     O3        0.746222137248860    0.286095971672448    0.060888766280231  0.0000
  O2     O2        0.765766731181555    0.706058880148428    0.035147700885839  0.0000
  O1     O1        0.263914902670743    0.281411929512520    0.906467952895845  0.0000
  O2     O2        0.242984816942997    0.684861640102592    0.938630378208408  0.0000
