data_c01133.vasp
_audit_creation_method             Generated by GULP
_audit_author_name                 Salvador R. G. Balestra
_symmetry_space_group_name_H-M     'P 1             '
_symmetry_Int_Tables_number        1

loop_
_symmetry_equiv_pos_site_id
_symmetry_equiv_pos_as_xyz
_cell_length_a                       16.9969
_cell_length_b                        7.6280
_cell_length_c                       10.3275
_cell_angle_alpha                   90.6132
_cell_angle_beta                    89.8751
_cell_angle_gamma                   90.3651

loop_
_atom_site_label
_atom_site_type_symbol
_atom_site_fract_x
_atom_site_fract_y
_atom_site_fract_z
_atom_site_charge
  Ge     Ge        0.556730000000016    0.000000000000000    0.122129999999970  0.0000
  Ge     Ge        0.662838470826066    0.711429844607330    0.706445739769076  0.0000
  Ge     Ge        0.330084853233957    0.720473585430098    0.965503348112461  0.0000
  Ge     Ge        0.170324253256980    0.266078808860553    0.964050567911064  0.0000
  Si     Si        0.048614399602495    0.989866706261319    0.355493364769804  0.0000
  Si     Si        0.445801286788496    0.012975626079569    0.371397659141252  0.0000
  Si     Si        0.950898519718034    0.982278912943903    0.616211308562416  0.0000
  Si     Si        0.546342085069244    0.998391020079915    0.623757813896561  0.0000
  Si     Si        0.947363647622922    0.002564187444799    0.101200230167221  0.0000
  Si     Si        0.445345836487531    0.001381457100265    0.879657756493315  0.0000
  Si     Si        0.058490602651740    0.981371771488358    0.864808829182326  0.0000
  Si     Si        0.165350581301811    0.276860270331421    0.271215331910938  0.0000
  Si     Si        0.330662361458533    0.722422199573911    0.273062776443984  0.0000
  Si     Si        0.836161698088802    0.274505601023725    0.706923507938870  0.0000
  Si     Si        0.847872382523243    0.675774525346545    0.699073438174262  0.0000
  Si     Si        0.653921076317430    0.298702951051091    0.710160710637842  0.0000
  Si     Si        0.151057798503969    0.680228141240225    0.267044383745943  0.0000
  Si     Si        0.345222389771378    0.318938058711923    0.271470095555820  0.0000
  Si     Si        0.653627102703880    0.314739473622511    0.009357995468040  0.0000
  Si     Si        0.852034178719439    0.683264334903874    0.002515594893591  0.0000
  Si     Si        0.354944214057304    0.323217781229630    0.968430589656778  0.0000
  Si     Si        0.145942842980263    0.663632967867830    0.963728270628180  0.0000
  Si     Si        0.670696701449956    0.719512268723578    0.011060411012901  0.0000
  Si     Si        0.835304573566170    0.286267803407093    0.009383468997890  0.0000
  O2     O2        0.113884511633047    0.144565917362949    0.357618343548221  0.0000
  O2     O2        0.381452933299690    0.857392652859176    0.359454493230671  0.0000
  O2     O2        0.885808787624485    0.134974811313686    0.624383539794790  0.0000
  O3     O3        0.604669653028966    0.835973718977965    0.607802688687165  0.0000
  O2     O2        0.908240954188344    0.793098562330017    0.616342603051116  0.0000
  O2     O2        0.598719402149256    0.175275656734037    0.622250893604349  0.0000
  O2     O2        0.090202187999179    0.800362460041411    0.346370164438537  0.0000
  O2     O2        0.405549811146396    0.202230857587277    0.351967961118087  0.0000
  O2     O2        0.999669258164699    0.002459664162300    0.486185836431449  0.0000
  O2     O2        0.480188131234255    0.007477494337515    0.515238964588250  0.0000
  O2     O2        0.988311138064210    0.015753276719023    0.238896732696702  0.0000
  O3     O3        0.517921950197133    0.987846507278116    0.274557740432483  0.0000
  O2     O2        0.010804316696079    0.000398629223128    0.734286999929925  0.0000
  O2     O2        0.502998933622427    0.976242817190943    0.760378431678454  0.0000
  O3     O3        0.594612238717989    0.208592876706831    0.098526977929587  0.0000
  O2     O2        0.912029835610180    0.807227856528901    0.081182867123030  0.0000
  O2     O2        0.418242030339627    0.203716140207596    0.893028725114701  0.0000
  O2     O2        0.084800052015032    0.780566683204853    0.883990561742400  0.0000
  O3     O3        0.369677269299047    0.876586740602593    0.866339892021219  0.0000
  O3     O3        0.134140942553166    0.106173635402955    0.862384081614358  0.0000
  O3     O3        0.630508349818652    0.845994807890109    0.113284699291664  0.0000
  O2     O2        0.879042280540744    0.147580154744505    0.098724309191097  0.0000
  O3     O3        0.487415636392234    0.938890036048649    0.009905349914985  0.0000
  O2     O2        0.008704692884443    0.050742928011171    0.988359218364799  0.0000
  O2     O2        0.132214381954187    0.474565021063273    0.287999483442275  0.0000
  O2     O2        0.363810309378524    0.525409432458111    0.292218581246302  0.0000
  O2     O2        0.865950843445844    0.470437402678407    0.674099035964280  0.0000
  O3     O3        0.631868253332579    0.497292736955223    0.687384659108891  0.0000
  O2     O2        0.256409079972347    0.275355080457687    0.316773538568435  0.0000
  O2     O2        0.239123840257981    0.725400208733423    0.316034508311072  0.0000
  O2     O2        0.744323751489026    0.259203769779024    0.670387696739048  0.0000
  O3     O3        0.760085689832971    0.721079686801030    0.658560697113566  0.0000
  O3     O3        0.162250690537343    0.209338060572527    0.124479442936403  0.0000
  O3     O3        0.336300112969452    0.783194035853632    0.126104718324895  0.0000
  O2     O2        0.846216632059602    0.234279997411115    0.858784096691109  0.0000
  O3     O3        0.656406971574628    0.783387123157325    0.865154747596636  0.0000
  O2     O2        0.861073893130866    0.722050507199025    0.850469356353629  0.0000
  O2     O2        0.641032624891745    0.250093731216373    0.861128084564398  0.0000
  O2     O2        0.144154427824118    0.722408386336303    0.115196380709957  0.0000
  O2     O2        0.356140720321857    0.270836981895900    0.120457234398246  0.0000
  O2     O2        0.636579441761459    0.521469214110685    0.020918794180098  0.0000
  O2     O2        0.871283579224562    0.480863813615482    0.033523606665963  0.0000
  O3     O3        0.378917978346955    0.522917277026552    0.948957628237788  0.0000
  O3     O3        0.122112278316610    0.463214288067271    0.944919222855669  0.0000
  O2     O2        0.743937331448921    0.279300838340189    0.049061185650197  0.0000
  O2     O2        0.763187886500526    0.722675867814987    0.044279572182039  0.0000
  O3     O3        0.267173220835766    0.290666233498442    0.918541857652140  0.0000
  O3     O3        0.234467253987498    0.693389427632372    0.915604139642460  0.0000
