data_c01115.vasp
_audit_creation_method             Generated by GULP
_audit_author_name                 Salvador R. G. Balestra
_symmetry_space_group_name_H-M     'P 1             '
_symmetry_Int_Tables_number        1

loop_
_symmetry_equiv_pos_site_id
_symmetry_equiv_pos_as_xyz
_cell_length_a                       17.0662
_cell_length_b                        7.5963
_cell_length_c                       10.3148
_cell_angle_alpha                   90.2260
_cell_angle_beta                    90.4454
_cell_angle_gamma                   90.4354

loop_
_atom_site_label
_atom_site_type_symbol
_atom_site_fract_x
_atom_site_fract_y
_atom_site_fract_z
_atom_site_charge
  Ge     Ge        0.556730000000016    0.000000000000000    0.122129999999970  0.0000
  Ge     Ge        0.646070967443587    0.686835004387250    0.711472275513607  0.0000
  Ge     Ge        0.673852510635945    0.282232653720078    0.026168583587115  0.0000
  Ge     Ge        0.148971785799766    0.341124444363253    0.959501217200039  0.0000
  Si     Si        0.042165281956092    0.016844588886435    0.356268189134753  0.0000
  Si     Si        0.439790688729250    0.009768319192130    0.369319258547622  0.0000
  Si     Si        0.947201596182878    0.010414678623136    0.619025305061514  0.0000
  Si     Si        0.541858777430466    0.993807219463592    0.623048133036872  0.0000
  Si     Si        0.943715018592895    0.023232347566387    0.099334546867137  0.0000
  Si     Si        0.447413059250657    0.024534256974197    0.879916846147041  0.0000
  Si     Si        0.055822700250153    0.021319608831943    0.863526516628477  0.0000
  Si     Si        0.145783304375499    0.323003540917871    0.266194902227381  0.0000
  Si     Si        0.337881562044244    0.701733920592279    0.289255188668729  0.0000
  Si     Si        0.843505302693337    0.319899312039320    0.710330057790275  0.0000
  Si     Si        0.828847113925400    0.721630595813936    0.699167347359375  0.0000
  Si     Si        0.665256371224987    0.269708078448622    0.721367009296137  0.0000
  Si     Si        0.158221755252576    0.729739739020476    0.271729381353409  0.0000
  Si     Si        0.326637219439538    0.299349469507179    0.277883049012641  0.0000
  Si     Si        0.829951271739015    0.736038136009180    0.003595454208283  0.0000
  Si     Si        0.333580448267807    0.310948469311666    0.973925165726349  0.0000
  Si     Si        0.168630107969896    0.747784705352324    0.969251328551794  0.0000
  Si     Si        0.349101331687453    0.710597685918559    0.987459085017466  0.0000
  Si     Si        0.648390203958140    0.686339976294462    0.014671816274970  0.0000
  Si     Si        0.854114208794652    0.344750607233149    0.014886646087061  0.0000
  O2     O2        0.087283312961929    0.204054418169476    0.350965313990187  0.0000
  O2     O2        0.394519648219335    0.821826770857307    0.378882330468042  0.0000
  O2     O2        0.904533995478949    0.197545858706686    0.635314027228587  0.0000
  O3     O3        0.577814083700007    0.799864495269217    0.620772460065214  0.0000
  O2     O2        0.882976925695604    0.854286539922402    0.618290262601157  0.0000
  O2     O2        0.614362391697854    0.130160516662813    0.638142037156471  0.0000
  O2     O2        0.104947699457221    0.858954305267600    0.355800929216860  0.0000
  O2     O2        0.375724057680218    0.165132893831099    0.365118825932448  0.0000
  O2     O2        0.992416400546853    0.008823811122576    0.485257412264199  0.0000
  O2     O2        0.497963228484286    0.034661751609791    0.489265573660340  0.0000
  O2     O2        0.982231454149959    0.990815008654851    0.237695961356152  0.0000
  O3     O3        0.490243325142990    0.021101017975989    0.241238954167980  0.0000
  O2     O2        0.010572412469851    0.976456264500688    0.731662997040107  0.0000
  O2     O2        0.477477001803694    0.017260968808423    0.734008100841675  0.0000
  O1     O1        0.633666305285097    0.144661660983287    0.136212034094400  0.0000
  O2     O2        0.868153929660243    0.895453102136235    0.084993332490594  0.0000
  O2     O2        0.381960381249076    0.175180005390025    0.888257383684209  0.0000
  O2     O2        0.132622826286724    0.899503548293226    0.879751883106516  0.0000
  O2     O2        0.411858963354259    0.832815410627969    0.916574192674975  0.0000
  O3     O3        0.085171824295184    0.221541593690912    0.863275937363356  0.0000
  O3     O3        0.593739432566001    0.790234971561730    0.113131743727002  0.0000
  O2     O2        0.919371362634851    0.228149209760837    0.087913369623198  0.0000
  O3     O3        0.516676946180383    0.072223869381386    0.976815929931873  0.0000
  O2     O2        0.002099980968213    0.972473168235992    0.985187565599663  0.0000
  O2     O2        0.127827197864819    0.529471678988309    0.287793998001842  0.0000
  O2     O2        0.356034721014589    0.496768271972070    0.313113374367128  0.0000
  O2     O2        0.861068196815235    0.523721334686533    0.677616728772527  0.0000
  O3     O3        0.629392322672849    0.462784654557483    0.706353688020623  0.0000
  O2     O2        0.234850946407726    0.281094038588820    0.309713661169227  0.0000
  O2     O2        0.247781420961365    0.743342056481426    0.322277907038611  0.0000
  O2     O2        0.754652992675257    0.272369078241706    0.667553167584462  0.0000
  O3     O3        0.739335883346358    0.730492469370425    0.654256296113339  0.0000
  O3     O3        0.132740276754899    0.274688068828560    0.116896857385420  0.0000
  O2     O2        0.355980702011529    0.750706187111859    0.140484955800397  0.0000
  O2     O2        0.853520929299048    0.288845012126369    0.863671810764680  0.0000
  O3     O3        0.634358934781406    0.757339997296636    0.869587686053475  0.0000
  O2     O2        0.831977435315466    0.776584231213796    0.850715273974542  0.0000
  O3     O3        0.668561572602153    0.205067348889963    0.868417715871029  0.0000
  O2     O2        0.155332311341184    0.786847855203829    0.121670601090191  0.0000
  O2     O2        0.338168350327465    0.258340475916349    0.125725429493737  0.0000
  O3     O3        0.627460528442286    0.483387944041143    0.026680846909211  0.0000
  O2     O2        0.875425753195844    0.552473562218768    0.030903950277563  0.0000
  O2     O2        0.369580279802842    0.507747058187938    0.957726588392549  0.0000
  O3     O3        0.130330933734990    0.560813534154222    0.935529411039189  0.0000
  O3     O3        0.770336365930059    0.307980284701155    0.074060543932194  0.0000
  O2     O2        0.740614886674164    0.716669935901911    0.048837393956676  0.0000
  O3     O3        0.245618048153895    0.305024420263216    0.923048752799787  0.0000
  O2     O2        0.261140310896939    0.748146215072750    0.939101411288406  0.0000
