data_c01117.vasp
_audit_creation_method             Generated by GULP
_audit_author_name                 Salvador R. G. Balestra
_symmetry_space_group_name_H-M     'P 1             '
_symmetry_Int_Tables_number        1

loop_
_symmetry_equiv_pos_site_id
_symmetry_equiv_pos_as_xyz
_cell_length_a                       16.9482
_cell_length_b                        7.6344
_cell_length_c                       10.3371
_cell_angle_alpha                   92.2097
_cell_angle_beta                    89.7066
_cell_angle_gamma                   89.7982

loop_
_atom_site_label
_atom_site_type_symbol
_atom_site_fract_x
_atom_site_fract_y
_atom_site_fract_z
_atom_site_charge
  Ge     Ge        0.556730000000016    0.000000000000000    0.122129999999970  0.0000
  Ge     Ge        0.661054381144754    0.682398560439796    0.691431349302440  0.0000
  Ge     Ge        0.648176979353670    0.326157526108396    0.022589877462943  0.0000
  Ge     Ge        0.836145794247819    0.298595103984563    0.024136357148936  0.0000
  Si     Si        0.046540893466778    0.963557529661272    0.351116048962505  0.0000
  Si     Si        0.446327301009255    0.976733226490519    0.366961250225561  0.0000
  Si     Si        0.951250257332771    0.954936272483883    0.613028392265400  0.0000
  Si     Si        0.544723882389013    0.966256042148264    0.620176312300296  0.0000
  Si     Si        0.939309149687392    0.993367108343555    0.103975036219542  0.0000
  Si     Si        0.445049606315386    0.952211625567627    0.877041626881793  0.0000
  Si     Si        0.054933089700827    0.953049994327923    0.863837397633719  0.0000
  Si     Si        0.160433340212593    0.253992194039637    0.262684629467876  0.0000
  Si     Si        0.334041962936686    0.680018282509828    0.266476201137211  0.0000
  Si     Si        0.835312885914872    0.252510645581514    0.714469978865016  0.0000
  Si     Si        0.847527299145057    0.655978695624302    0.691182026226476  0.0000
  Si     Si        0.653440820783776    0.270770156927905    0.715523027780276  0.0000
  Si     Si        0.152163763152940    0.656434682243607    0.267425289813925  0.0000
  Si     Si        0.342857637770641    0.277141742360391    0.264427730440770  0.0000
  Si     Si        0.845409793347335    0.684661379413585    0.987634370506077  0.0000
  Si     Si        0.347098012305083    0.271515403902208    0.963211907000277  0.0000
  Si     Si        0.150723080673170    0.643823471642374    0.965190419425384  0.0000
  Si     Si        0.333317050999321    0.669370783637288    0.964155772935081  0.0000
  Si     Si        0.164283754435297    0.245811784898500    0.960705670855907  0.0000
  Si     Si        0.661112073386866    0.718210894590204    0.991466217514037  0.0000
  O2     O2        0.107167295525050    0.125700250475913    0.344540751182366  0.0000
  O2     O2        0.385931435432806    0.814615888517936    0.351641023272244  0.0000
  O2     O2        0.887794752592835    0.110290989286726    0.634696376010305  0.0000
  O3     O3        0.603555550936851    0.804633228166862    0.590976972061345  0.0000
  O2     O2        0.907193156226038    0.766677638488647    0.603635235456692  0.0000
  O2     O2        0.596533357903107    0.142209548937140    0.632608990517366  0.0000
  O2     O2        0.095452994855438    0.781956263761575    0.354097757507421  0.0000
  O2     O2        0.401193894669702    0.159610413509434    0.345351362179009  0.0000
  O2     O2        0.995027648775926    0.987196235760497    0.479264557634496  0.0000
  O2     O2        0.479457845087744    0.985320567504660    0.510963817349456  0.0000
  O2     O2        0.989238462482697    0.954487184195454    0.229219174680187  0.0000
  O3     O3        0.519712953840480    0.953022846155380    0.271160398811389  0.0000
  O2     O2        0.016691737875005    0.956772978409518    0.724076115784994  0.0000
  O2     O2        0.497815933258394    0.927897448280177    0.750931806393430  0.0000
  O1     O1        0.581472488591429    0.214027509871690    0.113577567492791  0.0000
  O2     O2        0.873585895617052    0.842107010117118    0.082387037622941  0.0000
  O2     O2        0.405848148242782    0.146804330801884    0.879794639415038  0.0000
  O2     O2        0.093330893617458    0.761787542805559    0.881969964461927  0.0000
  O2     O2        0.377274071409973    0.803411648125787    0.873922009476650  0.0000
  O2     O2        0.121606416813185    0.102940453568406    0.869289846757623  0.0000
  O3     O3        0.642077797353298    0.875054741324304    0.091651996549694  0.0000
  O3     O3        0.894266129716625    0.174719403093636    0.122449534977550  0.0000
  O3     O3        0.494043708002609    0.920356498004370    0.004018325228651  0.0000
  O2     O2        0.992568015042492    0.998540101543389    0.975801008264152  0.0000
  O2     O2        0.134607504025526    0.454290598409276    0.296398508941364  0.0000
  O2     O2        0.360010112123540    0.481735646573631    0.296191977944343  0.0000
  O2     O2        0.865745845929558    0.447772146637481    0.682795673773628  0.0000
  O3     O3        0.630133947033483    0.468346360950316    0.687042767090333  0.0000
  O2     O2        0.252484923216415    0.230126162923049    0.297235760936731  0.0000
  O2     O2        0.242185534293790    0.704243786005180    0.302782540802883  0.0000
  O2     O2        0.744146957295306    0.234783004484143    0.670277831713902  0.0000
  O3     O3        0.759093097354682    0.690748318662131    0.646396984420476  0.0000
  O2     O2        0.148441650582738    0.206627215485542    0.110831704128698  0.0000
  O2     O2        0.346491534118335    0.718716887497779    0.115697000532570  0.0000
  O3     O3        0.839123285164260    0.218104842225477    0.865261065132751  0.0000
  O3     O3        0.648021555342583    0.774962112851791    0.845506343148148  0.0000
  O2     O2        0.862914484289814    0.729024642880385    0.838545105620293  0.0000
  O3     O3        0.644811905511433    0.235383365119654    0.866190772085261  0.0000
  O2     O2        0.136404483649090    0.689825421033857    0.116772491497360  0.0000
  O2     O2        0.361991068178133    0.233105429471163    0.113679328947781  0.0000
  O3     O3        0.615066472455241    0.540622017472165    0.023391722540438  0.0000
  O3     O3        0.881745731777062    0.502339044165770    0.027033916888848  0.0000
  O2     O2        0.366282069228533    0.472700379325682    0.934262370072683  0.0000
  O2     O2        0.131812085050679    0.439830275287048    0.932539335202437  0.0000
  O1     O1        0.741583643179033    0.294748793467317    0.080845904455534  0.0000
  O2     O2        0.751779174050563    0.648171456578951    0.999506092376622  0.0000
  O2     O2        0.256775885068008    0.231262477885837    0.928513502620258  0.0000
  O2     O2        0.241270131173056    0.681088161697852    0.929925682367353  0.0000
