data_c01113.vasp
_audit_creation_method             Generated by GULP
_audit_author_name                 Salvador R. G. Balestra
_symmetry_space_group_name_H-M     'P 1             '
_symmetry_Int_Tables_number        1

loop_
_symmetry_equiv_pos_site_id
_symmetry_equiv_pos_as_xyz
_cell_length_a                       17.0222
_cell_length_b                        7.6177
_cell_length_c                       10.3442
_cell_angle_alpha                   90.5576
_cell_angle_beta                    90.2479
_cell_angle_gamma                   90.4967

loop_
_atom_site_label
_atom_site_type_symbol
_atom_site_fract_x
_atom_site_fract_y
_atom_site_fract_z
_atom_site_charge
  Ge     Ge        0.556730000000016    0.000000000000000    0.122129999999970  0.0000
  Ge     Ge        0.644743821579267    0.688681474345120    0.713497867189970  0.0000
  Ge     Ge        0.674087805402688    0.281525524767399    0.023841634718120  0.0000
  Ge     Ge        0.167111808458070    0.729684265861990    0.963352623533371  0.0000
  Si     Si        0.041033907114883    0.013458023766241    0.353378860319154  0.0000
  Si     Si        0.438730681848958    0.005648814934438    0.369201701165984  0.0000
  Si     Si        0.944095602642509    0.016401161636425    0.614097622718418  0.0000
  Si     Si        0.539265593584342    0.992655310735064    0.624552005396171  0.0000
  Si     Si        0.946482390319155    0.015867964584192    0.092939250195340  0.0000
  Si     Si        0.445906187454234    0.013750072261049    0.882974323743918  0.0000
  Si     Si        0.057938540874582    0.010051640545622    0.857471969626481  0.0000
  Si     Si        0.145236547050671    0.318993875164818    0.264730861647510  0.0000
  Si     Si        0.336134537480657    0.695279957499267    0.287104882231521  0.0000
  Si     Si        0.840125888497695    0.322291809065974    0.701875481859141  0.0000
  Si     Si        0.827862329975674    0.722342218335856    0.696945237372893  0.0000
  Si     Si        0.661300287637106    0.273222825773907    0.720408993844706  0.0000
  Si     Si        0.156670500707082    0.725492175640906    0.270115556058467  0.0000
  Si     Si        0.326577754171121    0.294789412322988    0.280335762740906  0.0000
  Si     Si        0.831373381513434    0.728325770305999    0.000739787276465  0.0000
  Si     Si        0.332975722806772    0.298752104310249    0.979130455165068  0.0000
  Si     Si        0.350175702349493    0.695905608615654    0.983249023053046  0.0000
  Si     Si        0.149692565068592    0.324701736896135    0.966045193654121  0.0000
  Si     Si        0.649205777553421    0.685561609127227    0.015841374307078  0.0000
  Si     Si        0.855368401760748    0.336686534776281    0.005392108578453  0.0000
  O2     O2        0.086847130597070    0.199867824740386    0.348344052802237  0.0000
  O2     O2        0.393931512007719    0.817581791164052    0.372459851789746  0.0000
  O2     O2        0.897748381949374    0.199424113746468    0.619760497610542  0.0000
  O3     O3        0.576964671976370    0.801212775543340    0.623118518003818  0.0000
  O2     O2        0.882512756055934    0.855322718679515    0.618102171520803  0.0000
  O2     O2        0.609804294306799    0.134447213532630    0.637542753474170  0.0000
  O2     O2        0.102490965116679    0.853505128285015    0.354908633298282  0.0000
  O2     O2        0.374332297696045    0.160365457925473    0.368110859428707  0.0000
  O2     O2        0.991145104215660    0.006432844164742    0.482316966957290  0.0000
  O2     O2        0.494280027952558    0.027793136229848    0.492060857609656  0.0000
  O2     O2        0.981602594640955    0.991851839522058    0.234126901011968  0.0000
  O3     O3        0.491904040734281    0.021175467989646    0.244413774443272  0.0000
  O2     O2        0.005361809328532    0.004214638825725    0.730865759104780  0.0000
  O2     O2        0.475241951189672    0.012715117780488    0.736961158611616  0.0000
  O1     O1        0.633720011614652    0.145142760628110    0.133758573188365  0.0000
  O2     O2        0.871411563963785    0.886285173644819    0.080847468199402  0.0000
  O2     O2        0.374892660407679    0.152569901283365    0.892650696050875  0.0000
  O3     O3        0.125364619049630    0.866736714054396    0.852777189890699  0.0000
  O2     O2        0.417461451565428    0.816936936047645    0.921174713777283  0.0000
  O2     O2        0.097765440643865    0.202073500674319    0.871973324443806  0.0000
  O3     O3        0.594926882317669    0.791441373860235    0.114126883278202  0.0000
  O2     O2        0.921757275808033    0.218460956749932    0.072853769747282  0.0000
  O3     O3        0.513874889398471    0.071499520318629    0.979581860868670  0.0000
  O2     O2        0.008325611911935    0.957537047284068    0.984434259980463  0.0000
  O2     O2        0.126362799413574    0.524574408717222    0.283866001588464  0.0000
  O2     O2        0.355593870657617    0.492333811483156    0.314856007501545  0.0000
  O2     O2        0.859299014053021    0.525100169123952    0.671170665366574  0.0000
  O3     O3        0.625657222375063    0.466139600932862    0.708632758567511  0.0000
  O2     O2        0.234042036901625    0.278131265399532    0.309239552776878  0.0000
  O2     O2        0.246166881714420    0.736988361950516    0.322736273428192  0.0000
  O2     O2        0.750111529137506    0.279211303626850    0.663458052082728  0.0000
  O3     O3        0.737852482125851    0.732819598069599    0.654514938940170  0.0000
  O2     O2        0.133662774541385    0.267780067121693    0.114103664164676  0.0000
  O2     O2        0.349776894310435    0.735965152464230    0.136598956997439  0.0000
  O2     O2        0.852688518289351    0.286406181283640    0.853536468153186  0.0000
  O3     O3        0.634754609319694    0.758350955282533    0.872060760544071  0.0000
  O2     O2        0.832216265392710    0.771730721786564    0.848941897052055  0.0000
  O3     O3        0.665871793388559    0.206238465019831    0.865977222410762  0.0000
  O3     O3        0.154705132370103    0.788571615737481    0.123213333658815  0.0000
  O2     O2        0.341782559497165    0.249757379331136    0.129879799620012  0.0000
  O3     O3        0.628370793021611    0.483044450874625    0.027654850260017  0.0000
  O2     O2        0.876283558262956    0.544020331326048    0.024633459373220  0.0000
  O2     O2        0.371117463458591    0.491343666404591    0.956393021710829  0.0000
  O3     O3        0.127095669926592    0.522650476546268    0.941711364185156  0.0000
  O3     O3        0.771893581091625    0.299046206767754    0.066951631548116  0.0000
  O2     O2        0.742122792979536    0.711218688541482    0.048434686293247  0.0000
  O2     O2        0.242147889195537    0.301533787298201    0.937643594915433  0.0000
  O3     O3        0.265723644710819    0.735794510392113    0.925646803245756  0.0000
