data_c01131.vasp
_audit_creation_method             Generated by GULP
_audit_author_name                 Salvador R. G. Balestra
_symmetry_space_group_name_H-M     'P 1             '
_symmetry_Int_Tables_number        1

loop_
_symmetry_equiv_pos_site_id
_symmetry_equiv_pos_as_xyz
_cell_length_a                       16.9656
_cell_length_b                        7.5979
_cell_length_c                       10.3774
_cell_angle_alpha                   89.8946
_cell_angle_beta                    89.9727
_cell_angle_gamma                   90.6107

loop_
_atom_site_label
_atom_site_type_symbol
_atom_site_fract_x
_atom_site_fract_y
_atom_site_fract_z
_atom_site_charge
  Ge     Ge        0.556730000000016    0.000000000000000    0.122129999999970  0.0000
  Ge     Ge        0.645154051370298    0.696501027271870    0.705799265078947  0.0000
  Ge     Ge        0.167670418210244    0.747283066774293    0.957668871224749  0.0000
  Ge     Ge        0.646850129497466    0.673153343681000    0.017744567455415  0.0000
  Si     Si        0.043850151128729    0.023252164208443    0.346563105881484  0.0000
  Si     Si        0.444205047924644    0.021009508267395    0.366324835404262  0.0000
  Si     Si        0.946971245465901    0.029156708593239    0.606744392958536  0.0000
  Si     Si        0.541226965446591    0.005528557557222    0.622561696373676  0.0000
  Si     Si        0.947222342205205    0.014758051300866    0.087305955236802  0.0000
  Si     Si        0.445493655217387    0.025416275956584    0.881614473962271  0.0000
  Si     Si        0.058804523217191    0.028522529292702    0.850268176580177  0.0000
  Si     Si        0.147094710390413    0.333750246446496    0.260519504875401  0.0000
  Si     Si        0.342214518927222    0.708577644068654    0.271101600183369  0.0000
  Si     Si        0.845036795847780    0.332456222886455    0.693641037472003  0.0000
  Si     Si        0.827797335752150    0.733802215295121    0.697419566523728  0.0000
  Si     Si        0.663479913263661    0.282509469311405    0.706628197677751  0.0000
  Si     Si        0.161694846606095    0.741659665045293    0.263614758504375  0.0000
  Si     Si        0.328380835954245    0.305526450775763    0.269339913689599  0.0000
  Si     Si        0.673159633659982    0.269553032209658    0.005939644545319  0.0000
  Si     Si        0.830099900568558    0.724582509746095    0.002517246014678  0.0000
  Si     Si        0.331588512493938    0.306780835835282    0.968941918245490  0.0000
  Si     Si        0.351564344095616    0.702631571399018    0.968690199566032  0.0000
  Si     Si        0.148462714353449    0.343018168519491    0.962042531786406  0.0000
  Si     Si        0.854958567454643    0.333021867634307    0.991962247561439  0.0000
  O2     O2        0.087041174027904    0.214331501997747    0.343560726775407  0.0000
  O2     O2        0.403666584548045    0.828559707842787    0.349810659582322  0.0000
  O2     O2        0.901665612472484    0.214874947602134    0.605287427442741  0.0000
  O3     O3        0.576451448966718    0.812061706684980    0.617580753333962  0.0000
  O2     O2        0.884279427170731    0.871705858599620    0.625435340401135  0.0000
  O2     O2        0.615723226327782    0.141251028153072    0.620790752435628  0.0000
  O2     O2        0.109009418904934    0.869823458546884    0.350435943470730  0.0000
  O2     O2        0.377681815986176    0.169854130750211    0.353911501030089  0.0000
  O2     O2        0.990775269625147    0.006849645025914    0.472404217691830  0.0000
  O2     O2        0.482448066213452    0.037695618398793    0.505626805061311  0.0000
  O2     O2        0.987799426734512    0.995918067030928    0.224457841658440  0.0000
  O3     O3        0.514165779762004    0.050394780921812    0.266192139013861  0.0000
  O2     O2        0.011252090085128    0.023608885216966    0.718994883674693  0.0000
  O2     O2        0.490258430356497    0.044178069964146    0.748645509495820  0.0000
  O3     O3        0.644326440898430    0.117104349070549    0.098915459545840  0.0000
  O2     O2        0.876233473942776    0.874543017921450    0.080549224533624  0.0000
  O2     O2        0.371247457593974    0.158034507597988    0.882216125433356  0.0000
  O3     O3        0.128859671015862    0.890630699252533    0.848094585939576  0.0000
  O2     O2        0.417391392316044    0.821714005846331    0.898113436749135  0.0000
  O2     O2        0.094162111365671    0.223845484964972    0.870525858523720  0.0000
  O1     O1        0.581979876573938    0.783802275469064    0.114009633010803  0.0000
  O2     O2        0.914840726283940    0.212929386539259    0.072154213544890  0.0000
  O3     O3        0.499220738329663    0.081094228633957    0.999547465941723  0.0000
  O2     O2        0.006938932321350    0.966336336105508    0.972998406667255  0.0000
  O2     O2        0.130638651666097    0.540615156148092    0.279960571564067  0.0000
  O2     O2        0.359211141618817    0.503475681030207    0.298936525014827  0.0000
  O2     O2        0.861506246072635    0.538722213284785    0.669104308160807  0.0000
  O3     O3        0.627174971921009    0.473495953626504    0.689680200082154  0.0000
  O2     O2        0.236069522319929    0.290109567531641    0.304458323979741  0.0000
  O2     O2        0.252694579172157    0.753546678731861    0.310033233862422  0.0000
  O2     O2        0.754415447525576    0.287499686615422    0.659889693093927  0.0000
  O3     O3        0.739025333938502    0.745387695393033    0.648380787006866  0.0000
  O2     O2        0.134868473888486    0.284910622367432    0.110627008957425  0.0000
  O2     O2        0.355563375687023    0.749583317850255    0.120476170916879  0.0000
  O2     O2        0.864460992338481    0.283770942716620    0.841634762756517  0.0000
  O1     O1        0.633282114401222    0.750969069465147    0.863943662709257  0.0000
  O2     O2        0.824082790142028    0.770950121949369    0.850665391398556  0.0000
  O2     O2        0.661279447109070    0.219870687491675    0.855319609629143  0.0000
  O3     O3        0.157463116567583    0.806155772581449    0.117016148686794  0.0000
  O2     O2        0.339653765106256    0.257107633555192    0.119509465994136  0.0000
  O3     O3        0.627879304343426    0.450915693508266    0.031259270719805  0.0000
  O2     O2        0.875712791153329    0.538027136242815    0.017080827342453  0.0000
  O2     O2        0.372567767980073    0.497653748274404    0.945261122265060  0.0000
  O3     O3        0.125221064073211    0.541637133388485    0.939003361112663  0.0000
  O2     O2        0.765517597296542    0.300281763477431    0.035195501598008  0.0000
  O3     O3        0.744027647582850    0.712107702133393    0.061451647799581  0.0000
  O2     O2        0.240473450752883    0.316911055908547    0.928718376107532  0.0000
  O3     O3        0.265965229613373    0.741874407765670    0.916367715405436  0.0000
