data_c01124.vasp
_audit_creation_method             Generated by GULP
_audit_author_name                 Salvador R. G. Balestra
_symmetry_space_group_name_H-M     'P 1             '
_symmetry_Int_Tables_number        1

loop_
_symmetry_equiv_pos_site_id
_symmetry_equiv_pos_as_xyz
_cell_length_a                       16.9686
_cell_length_b                        7.6213
_cell_length_c                       10.3676
_cell_angle_alpha                   90.3637
_cell_angle_beta                    90.2340
_cell_angle_gamma                   89.9293

loop_
_atom_site_label
_atom_site_type_symbol
_atom_site_fract_x
_atom_site_fract_y
_atom_site_fract_z
_atom_site_charge
  Ge     Ge        0.556730000000016    0.000000000000000    0.122129999999970  0.0000
  Ge     Ge        0.650880265675866    0.680387510685968    0.708071355101980  0.0000
  Ge     Ge        0.329751809246561    0.278547950764911    0.969679765977297  0.0000
  Ge     Ge        0.169048498363426    0.733853397582660    0.969148874600084  0.0000
  Si     Si        0.047769991587569    0.011903741952797    0.356534063322299  0.0000
  Si     Si        0.446455889539925    0.997416361849892    0.372185278201261  0.0000
  Si     Si        0.950328701456402    0.005360950975903    0.616524796203494  0.0000
  Si     Si        0.545878014154048    0.985865920048909    0.626488098485543  0.0000
  Si     Si        0.946843665528743    0.999859145465507    0.101318906596308  0.0000
  Si     Si        0.444195341695776    0.995613542908916    0.881302148362737  0.0000
  Si     Si        0.057771841421603    0.016224511486478    0.865490501659785  0.0000
  Si     Si        0.149865277091444    0.322018452593130    0.269381423226968  0.0000
  Si     Si        0.345333640800022    0.686510109501508    0.276959192929659  0.0000
  Si     Si        0.846323666034295    0.309273139120346    0.707100222429728  0.0000
  Si     Si        0.835507078010369    0.711387201067425    0.703695432609154  0.0000
  Si     Si        0.663642698853044    0.269001413358211    0.715860938398199  0.0000
  Si     Si        0.165097327407099    0.726142433842371    0.274971342861500  0.0000
  Si     Si        0.330041152942580    0.282438453037408    0.275798947877665  0.0000
  Si     Si        0.671235164612491    0.279411733560620    0.013964893984445  0.0000
  Si     Si        0.833586408717049    0.714061517144277    0.006992209861777  0.0000
  Si     Si        0.353879904192790    0.676741135225227    0.975404547957950  0.0000
  Si     Si        0.145113053216826    0.335411210318967    0.967658233116101  0.0000
  Si     Si        0.651558015635406    0.681804268576299    0.012354421648132  0.0000
  Si     Si        0.853463647901215    0.317728855860716    0.006235519572376  0.0000
  O2     O2        0.089028192826014    0.202682836381368    0.348343869254121  0.0000
  O2     O2        0.406129124762712    0.805479386356912    0.357998387054856  0.0000
  O2     O2        0.900887606158364    0.185711946299138    0.619630102493143  0.0000
  O3     O3        0.585672275188504    0.797000664072522    0.614190934315828  0.0000
  O2     O2        0.891380477038136    0.840582679560870    0.624274685814474  0.0000
  O2     O2        0.616608811524511    0.128611186013475    0.629067484054355  0.0000
  O2     O2        0.113794448469216    0.859387741104721    0.361314930481584  0.0000
  O2     O2        0.380556192870818    0.149043208693036    0.361904681462893  0.0000
  O2     O2        0.997294741164870    0.999235128544427    0.484640314134108  0.0000
  O2     O2        0.484980958496078    0.018051690191887    0.512111121854526  0.0000
  O2     O2        0.989272739427172    0.980605887739642    0.237267186593012  0.0000
  O3     O3        0.516164767402983    0.019890096831896    0.271675602398968  0.0000
  O2     O2        0.012469041947175    0.996900775554335    0.732256590805451  0.0000
  O2     O2        0.497942589633382    0.006137169266473    0.757711159457911  0.0000
  O3     O3        0.633115969041433    0.149356668564938    0.113193115952829  0.0000
  O2     O2        0.876675070402069    0.858602093895028    0.094422221009839  0.0000
  O3     O3        0.368830152811839    0.121227322891287    0.869905053831479  0.0000
  O3     O3        0.133131703304809    0.890588563250562    0.866851431818378  0.0000
  O2     O2        0.417315791107121    0.794241074174113    0.900848287013018  0.0000
  O2     O2        0.084277511260208    0.217417502507293    0.885752237288688  0.0000
  O3     O3        0.593417558549001    0.789707446320948    0.103077873005018  0.0000
  O2     O2        0.912835433749307    0.197424060895538    0.088346339185187  0.0000
  O3     O3        0.490015436605691    0.064444145396238    0.007098210018791  0.0000
  O2     O2        0.006125813078248    0.950227902371382    0.986282550740361  0.0000
  O2     O2        0.131653053246001    0.528349887023311    0.290579341000370  0.0000
  O2     O2        0.363462364173389    0.480083004300228    0.296364220393232  0.0000
  O2     O2        0.864778079822895    0.512020710849705    0.678019165720960  0.0000
  O3     O3        0.629724863370744    0.460899100514714    0.691178154383403  0.0000
  O2     O2        0.238354502076627    0.278710395651920    0.317498550760483  0.0000
  O2     O2        0.256305106759382    0.729500097105512    0.321237191185028  0.0000
  O2     O2        0.755390646278724    0.267632187077828    0.675320117607790  0.0000
  O3     O3        0.745822636308059    0.726815448505759    0.659189557605752  0.0000
  O2     O2        0.142203323051086    0.277110018636423    0.117936485202669  0.0000
  O2     O2        0.356063959044848    0.732656231214011    0.126801365751698  0.0000
  O2     O2        0.865519431236941    0.267780888548132    0.856279411980311  0.0000
  O3     O3        0.637319138933318    0.743796600125206    0.866532165655430  0.0000
  O2     O2        0.840011570028315    0.759076493286510    0.855739937545645  0.0000
  O2     O2        0.657075612335963    0.215352141462892    0.866291786880101  0.0000
  O3     O3        0.161514716698150    0.792580583478919    0.129229813141584  0.0000
  O3     O3        0.336179689558082    0.218277370203561    0.129420304040183  0.0000
  O2     O2        0.634779858212559    0.474720206923714    0.026825816261026  0.0000
  O2     O2        0.872418158448640    0.522648947146052    0.032131961765733  0.0000
  O3     O3        0.378143650151796    0.477016846001908    0.955218490980210  0.0000
  O3     O3        0.121008387336436    0.535301630753515    0.949898735724829  0.0000
  O2     O2        0.764012542781523    0.281655273199842    0.045962738465515  0.0000
  O2     O2        0.742832049524219    0.717357534056748    0.049206738431334  0.0000
  O3     O3        0.233753232301419    0.305459719900874    0.920769493837335  0.0000
  O3     O3        0.266114715096563    0.708852833226426    0.925077528588489  0.0000
