data_c01154.vasp
_audit_creation_method             Generated by GULP
_audit_author_name                 Salvador R. G. Balestra
_symmetry_space_group_name_H-M     'P 1             '
_symmetry_Int_Tables_number        1

loop_
_symmetry_equiv_pos_site_id
_symmetry_equiv_pos_as_xyz
_cell_length_a                       16.9154
_cell_length_b                        7.5995
_cell_length_c                       10.3628
_cell_angle_alpha                   90.6844
_cell_angle_beta                    90.1174
_cell_angle_gamma                   89.8533

loop_
_atom_site_label
_atom_site_type_symbol
_atom_site_fract_x
_atom_site_fract_y
_atom_site_fract_z
_atom_site_charge
  Ge     Ge        0.556730000000016    0.000000000000000    0.122129999999970  0.0000
  Ge     Ge        0.651173688632271    0.326353159790964    0.019692570542494  0.0000
  Ge     Ge        0.333380177417006    0.704576068973461    0.971900382708135  0.0000
  Ge     Ge        0.172671483820923    0.248406605262266    0.970097437803059  0.0000
  Si     Si        0.051888615078879    0.976650493259641    0.359149159287300  0.0000
  Si     Si        0.451557026617375    0.988684976897157    0.373868188454399  0.0000
  Si     Si        0.953207538728748    0.970592480900685    0.617836051189899  0.0000
  Si     Si        0.552830189528064    0.989858848926534    0.628565534131745  0.0000
  Si     Si        0.951925227054262    0.995978520894839    0.102546335161475  0.0000
  Si     Si        0.447747926259806    0.982508757503483    0.879323895273732  0.0000
  Si     Si        0.061675047718703    0.966682058703711    0.866202655595970  0.0000
  Si     Si        0.169856739199159    0.258424721636848    0.276108287787706  0.0000
  Si     Si        0.334432492115505    0.704445034843768    0.277831115846724  0.0000
  Si     Si        0.836964590424391    0.264449476711714    0.712744860080484  0.0000
  Si     Si        0.669477431126955    0.703207232570416    0.707236795468615  0.0000
  Si     Si        0.851401635690261    0.666384582176973    0.702316585466263  0.0000
  Si     Si        0.655683128470860    0.297578745605383    0.713622722619770  0.0000
  Si     Si        0.153846740753067    0.663533533048718    0.272230822301908  0.0000
  Si     Si        0.350768957527003    0.298703944116400    0.275334132185114  0.0000
  Si     Si        0.858094977758081    0.676546126529192    0.001619605519563  0.0000
  Si     Si        0.358397192303237    0.305486287605842    0.974345867622977  0.0000
  Si     Si        0.148209624913221    0.647634312020311    0.970313343820556  0.0000
  Si     Si        0.675356858483918    0.729676238971756    0.007705794779411  0.0000
  Si     Si        0.837010297850181    0.281934381458008    0.015478023505243  0.0000
  O2     O2        0.119143843080405    0.127298110816277    0.363985063311675  0.0000
  O2     O2        0.384579864129555    0.838051816971027    0.366744812535800  0.0000
  O2     O2        0.888501471446440    0.125040243079717    0.632363847074339  0.0000
  O2     O2        0.617396662678016    0.832302394873063    0.618794743790275  0.0000
  O2     O2        0.908987222708581    0.782431355619457    0.614548585459994  0.0000
  O2     O2        0.597187479560834    0.177551881138700    0.626914328280463  0.0000
  O2     O2        0.092552846466714    0.783971825637782    0.352285671487411  0.0000
  O2     O2        0.412601350866610    0.181672872991856    0.354972940600239  0.0000
  O2     O2        0.999992827510284    0.993236194955677    0.486455520804359  0.0000
  O2     O2        0.491344628373911    0.980999383004388    0.512888838362772  0.0000
  O2     O2        0.994758367214450    0.007943005083762    0.238734594480246  0.0000
  O3     O3        0.519886446859078    0.953640311585111    0.271074641558921  0.0000
  O2     O2        0.015461201419093    0.981984422919215    0.733653236858065  0.0000
  O2     O2        0.503159425181404    0.963562443597880    0.757276343539472  0.0000
  O1     O1        0.583063382939996    0.216276795579668    0.108599360664787  0.0000
  O2     O2        0.916489007764069    0.800410346165072    0.083507407624817  0.0000
  O2     O2        0.421361330591674    0.186364713707964    0.896680261160172  0.0000
  O2     O2        0.086710340057614    0.764837485028902    0.889587192700633  0.0000
  O3     O3        0.371685030895711    0.858410381053878    0.869746631662638  0.0000
  O3     O3        0.138165982315257    0.089406894862390    0.865823605207719  0.0000
  O3     O3        0.644558136932802    0.887079633637338    0.094543422993659  0.0000
  O2     O2        0.883159740041348    0.141694998212685    0.101953803120739  0.0000
  O3     O3        0.492780124624673    0.918991771480174    0.006748938125439  0.0000
  O2     O2        0.011691615251154    0.043422730203383    0.987517341014648  0.0000
  O2     O2        0.136088917921561    0.457063264602342    0.292678790408587  0.0000
  O2     O2        0.368269865914936    0.506151346216248    0.294992816736609  0.0000
  O2     O2        0.868969359335509    0.459675214588418    0.681251879104622  0.0000
  O2     O2        0.637808041731615    0.503932939240523    0.690493118404535  0.0000
  O2     O2        0.261738427531933    0.255391526423519    0.320168293072382  0.0000
  O2     O2        0.242533527150656    0.707859155221741    0.320169895401235  0.0000
  O2     O2        0.745401855510281    0.251753180732246    0.670890153151184  0.0000
  O2     O2        0.760990337025064    0.710099126330337    0.664310823741177  0.0000
  O3     O3        0.165659317275112    0.190204223689622    0.129815605496137  0.0000
  O3     O3        0.340078895890077    0.768581432010863    0.131925279833447  0.0000
  O2     O2        0.841453139803980    0.224696895071015    0.864733114508310  0.0000
  O2     O2        0.663284865609620    0.767463892540005    0.855292264719062  0.0000
  O2     O2        0.869068825239014    0.720128165394307    0.850693640976673  0.0000
  O3     O3        0.641303216368343    0.253212821525803    0.861586376129730  0.0000
  O2     O2        0.145839206316633    0.707080231703039    0.121196055159185  0.0000
  O2     O2        0.362288863666682    0.248540044874823    0.125069850706321  0.0000
  O3     O3        0.631778876615883    0.547665353240192    0.038111396032942  0.0000
  O2     O2        0.878493825531365    0.473587103424869    0.030916154056010  0.0000
  O3     O3        0.382708104177798    0.505610872201391    0.957042827706425  0.0000
  O3     O3        0.124111884824190    0.447020230459657    0.951641321815865  0.0000
  O3     O3        0.748196522701482    0.287253778479340    0.064336000502716  0.0000
  O2     O2        0.767869744524672    0.709441553365146    0.040376871294156  0.0000
  O3     O3        0.269950322139928    0.275311941629542    0.926095134599767  0.0000
  O3     O3        0.237056028328628    0.677447647224802    0.923250802225509  0.0000
