data_c01119.vasp
_audit_creation_method             Generated by GULP
_audit_author_name                 Salvador R. G. Balestra
_symmetry_space_group_name_H-M     'P 1             '
_symmetry_Int_Tables_number        1

loop_
_symmetry_equiv_pos_site_id
_symmetry_equiv_pos_as_xyz
_cell_length_a                       16.9328
_cell_length_b                        7.6089
_cell_length_c                       10.3980
_cell_angle_alpha                   90.4371
_cell_angle_beta                    90.2200
_cell_angle_gamma                   90.6053

loop_
_atom_site_label
_atom_site_type_symbol
_atom_site_fract_x
_atom_site_fract_y
_atom_site_fract_z
_atom_site_charge
  Ge     Ge        0.556730000000016    0.000000000000000    0.122129999999970  0.0000
  Ge     Ge        0.642145066395938    0.678511546398647    0.711481865954964  0.0000
  Ge     Ge        0.827007917744818    0.734078993607499    0.010920267486617  0.0000
  Ge     Ge        0.162077045828486    0.728415140132019    0.970802247466422  0.0000
  Si     Si        0.045798988975553    0.018839446235974    0.363125042639848  0.0000
  Si     Si        0.446559363157743    0.012136487738221    0.370354674797585  0.0000
  Si     Si        0.943580375726998    0.017634392779123    0.617523866191949  0.0000
  Si     Si        0.539277971871163    0.990203141477350    0.631308868250342  0.0000
  Si     Si        0.942352825065637    0.018336460677706    0.108876260458940  0.0000
  Si     Si        0.440484938299656    0.012989624348354    0.886393084969850  0.0000
  Si     Si        0.049513448541088    0.008384075017014    0.868780309575860  0.0000
  Si     Si        0.148784372616461    0.324595875953491    0.276119003334815  0.0000
  Si     Si        0.341897836718037    0.701262806915941    0.277134053115501  0.0000
  Si     Si        0.843533130788332    0.323617503199281    0.708535747905353  0.0000
  Si     Si        0.825571432523116    0.727471230550765    0.702920774957758  0.0000
  Si     Si        0.661627893183808    0.269169418913850    0.718835223672753  0.0000
  Si     Si        0.160835723604296    0.731742843222769    0.276179006986622  0.0000
  Si     Si        0.330587920811641    0.298718311995770    0.275780268016182  0.0000
  Si     Si        0.672038927598518    0.279453412233425    0.016293480655171  0.0000
  Si     Si        0.327534460723049    0.294954652889794    0.975873335218171  0.0000
  Si     Si        0.346613975334808    0.691653206352252    0.975005449151197  0.0000
  Si     Si        0.143723572126208    0.323903959301224    0.978118615890087  0.0000
  Si     Si        0.643673874753324    0.674984416777406    0.018130827903868  0.0000
  Si     Si        0.855133598042208    0.336303281771928    0.005492149886675  0.0000
  O2     O2        0.091707051692706    0.206428409016584    0.364022091404159  0.0000
  O2     O2        0.403438242387589    0.822654627740830    0.355078288167851  0.0000
  O2     O2        0.899271138383289    0.204650828337538    0.619306506876360  0.0000
  O3     O3        0.572083253278770    0.794361196510339    0.627610198149923  0.0000
  O2     O2        0.880010034213521    0.858905560554188    0.620271263865177  0.0000
  O2     O2        0.615938637216689    0.119508371987096    0.637084548085875  0.0000
  O2     O2        0.108616792041778    0.860591689663417    0.363646728996825  0.0000
  O2     O2        0.382193640152617    0.165548953907764    0.357839830576876  0.0000
  O2     O2        0.992942673345645    0.003661442330437    0.488253249312632  0.0000
  O2     O2        0.485326903480044    0.028769650315658    0.509540240048325  0.0000
  O2     O2        0.989729109409491    0.002425941958108    0.239929590055086  0.0000
  O3     O3        0.516491971364046    0.033346778442055    0.270175263018444  0.0000
  O2     O2        0.003139984176463    0.003528528486294    0.736233764066576  0.0000
  O2     O2        0.484774076835398    0.028924501007424    0.753183787800184  0.0000
  O3     O3        0.639530163785490    0.135338026446676    0.111497854763476  0.0000
  O3     O3        0.867584405692299    0.890559315777370    0.111017684355512  0.0000
  O2     O2        0.366680067064598    0.146943718401705    0.887298364933915  0.0000
  O3     O3        0.118420677769893    0.867883433661634    0.864868125511288  0.0000
  O2     O2        0.411000484696191    0.810991705000306    0.902499570797284  0.0000
  O2     O2        0.087044680470785    0.201462219402730    0.892020482459801  0.0000
  O3     O3        0.581979996399673    0.782372992550828    0.103181183598257  0.0000
  O2     O2        0.914105244581038    0.218562081021979    0.089168039990043  0.0000
  O3     O3        0.494989887038767    0.073071411784834    0.003387951361830  0.0000
  O2     O2        0.993940207013514    0.950398635264689    0.987686928755516  0.0000
  O2     O2        0.130956414785240    0.530787725333195    0.294964347982367  0.0000
  O2     O2        0.360869128765142    0.497471496688937    0.303898449773625  0.0000
  O2     O2        0.860056259020906    0.529936049848535    0.687170173525827  0.0000
  O3     O3        0.622916073702084    0.456473108077593    0.694997654984060  0.0000
  O2     O2        0.238921514713001    0.283407600610914    0.315233190422218  0.0000
  O2     O2        0.252664661026705    0.745388611101470    0.319116368858654  0.0000
  O2     O2        0.752757676786098    0.278469110775897    0.673766773339510  0.0000
  O3     O3        0.735856930909169    0.726171528423253    0.654643620412056  0.0000
  O2     O2        0.133318005340342    0.271039368833377    0.127615690945909  0.0000
  O2     O2        0.352184436888776    0.740500936395658    0.126305470333056  0.0000
  O2     O2        0.862917759940600    0.276560324771226    0.856359716503959  0.0000
  O3     O3        0.634964055962426    0.737569452992743    0.871260999352704  0.0000
  O3     O3        0.827047104769005    0.789696941134948    0.850666532347816  0.0000
  O2     O2        0.660075279392671    0.214847344656506    0.868736605664810  0.0000
  O3     O3        0.153530093621080    0.791579381795371    0.129658798226825  0.0000
  O2     O2        0.339060184236563    0.248251430770540    0.125839071819138  0.0000
  O2     O2        0.627395329445637    0.465867830514036    0.030976548557029  0.0000
  O3     O3        0.877283001265631    0.537718254235203    0.025818617778955  0.0000
  O2     O2        0.366568668112188    0.486543930548538    0.950171685362280  0.0000
  O3     O3        0.120151388563766    0.521874316074960    0.954520494854232  0.0000
  O2     O2        0.764368894390504    0.309147291871162    0.047575883384797  0.0000
  O3     O3        0.731885259080030    0.716569693880074    0.065530355633090  0.0000
  O2     O2        0.235247316121850    0.298886563073418    0.940169902245277  0.0000
  O3     O3        0.259704222675262    0.728600334642235    0.925643074737244  0.0000
