data_c01108.vasp
_audit_creation_method             Generated by GULP
_audit_author_name                 Salvador R. G. Balestra
_symmetry_space_group_name_H-M     'P 1             '
_symmetry_Int_Tables_number        1

loop_
_symmetry_equiv_pos_site_id
_symmetry_equiv_pos_as_xyz
_cell_length_a                       17.0011
_cell_length_b                        7.6156
_cell_length_c                       10.3336
_cell_angle_alpha                   89.9753
_cell_angle_beta                    89.6780
_cell_angle_gamma                   90.8551

loop_
_atom_site_label
_atom_site_type_symbol
_atom_site_fract_x
_atom_site_fract_y
_atom_site_fract_z
_atom_site_charge
  Ge     Ge        0.556730000000016    0.000000000000000    0.122129999999970  0.0000
  Ge     Ge        0.644029579935403    0.685792003100513    0.703502916333415  0.0000
  Ge     Ge        0.665660705473982    0.267988777587556    0.709729534837226  0.0000
  Ge     Ge        0.826002914465204    0.743724775960710    0.010543891719653  0.0000
  Si     Si        0.046876749905464    0.019163411366472    0.355922794680567  0.0000
  Si     Si        0.445456932219720    0.016197762833938    0.368613118984434  0.0000
  Si     Si        0.949440796050566    0.026033413202161    0.617182089428313  0.0000
  Si     Si        0.541169038252986    0.992432658735508    0.622933691042638  0.0000
  Si     Si        0.939961688528996    0.029479679254762    0.106426607712202  0.0000
  Si     Si        0.443593802786253    0.025971373438430    0.881017953687660  0.0000
  Si     Si        0.051628682451498    0.010381397005444    0.868259589451125  0.0000
  Si     Si        0.152661306209868    0.324051089257070    0.269528765751313  0.0000
  Si     Si        0.341007575484668    0.711361358861747    0.267448217731438  0.0000
  Si     Si        0.849608186192518    0.334625199633372    0.706154954236290  0.0000
  Si     Si        0.827598125206944    0.738063844772971    0.700499069928512  0.0000
  Si     Si        0.159263529816089    0.727751811927339    0.267247450556448  0.0000
  Si     Si        0.333773679779376    0.307665222254879    0.265436596678229  0.0000
  Si     Si        0.672243886662104    0.281750777021595    0.013065250469594  0.0000
  Si     Si        0.331404348841564    0.309605669911444    0.963031291536976  0.0000
  Si     Si        0.161796633230713    0.725965449475714    0.965790761567461  0.0000
  Si     Si        0.344084733787563    0.709362120128984    0.966248440577749  0.0000
  Si     Si        0.149747009852027    0.325559097301828    0.967662181125738  0.0000
  Si     Si        0.644264277288652    0.680493331000251    0.010070787940584  0.0000
  Si     Si        0.853571189586062    0.347357354583811    0.007506675074419  0.0000
  O2     O2        0.096303573761983    0.201481584168286    0.356395839190432  0.0000
  O2     O2        0.397799909240789    0.833038098323345    0.352084402465293  0.0000
  O2     O2        0.912266286853193    0.219596851908250    0.626236996643668  0.0000
  O3     O3        0.572756374172402    0.796262405673974    0.618740874937688  0.0000
  O2     O2        0.881403004940007    0.876926161649761    0.621309698487834  0.0000
  O3     O3        0.618114521625807    0.116696960816071    0.613787179030539  0.0000
  O2     O2        0.106762329512936    0.856685074066826    0.352557010833286  0.0000
  O2     O2        0.387714987922602    0.179103911276299    0.346868722346444  0.0000
  O2     O2        0.994518986559809    0.007425702810666    0.482791671760270  0.0000
  O2     O2        0.476864483870436    0.027012109135943    0.514069883261675  0.0000
  O2     O2        0.990337095817974    0.009820797094357    0.233755280687948  0.0000
  O3     O3        0.520237508268041    0.022506109520603    0.275948072478366  0.0000
  O2     O2        0.012453852655770    0.997118158463475    0.729485709135569  0.0000
  O2     O2        0.500885117693146    0.041599660043696    0.759632401656646  0.0000
  O3     O3        0.635956839134818    0.145311302100867    0.113648461974489  0.0000
  O3     O3        0.865536679138260    0.900606255680167    0.110743236865553  0.0000
  O2     O2        0.377050370039686    0.175279546954334    0.871986255159872  0.0000
  O2     O2        0.117359057765901    0.860854007583263    0.874810487385566  0.0000
  O2     O2        0.402356253503277    0.832360743565282    0.882603504587977  0.0000
  O2     O2        0.091326106885336    0.202816072609476    0.885802411270903  0.0000
  O3     O3        0.581849181036263    0.784022197344303    0.096490184647270  0.0000
  O2     O2        0.911579241295975    0.229829778322825    0.092651948493049  0.0000
  O3     O3        0.489638123270885    0.068386567760620    0.010608888527146  0.0000
  O2     O2        0.987908750371514    0.968240984077500    0.979269628094742  0.0000
  O2     O2        0.133987917997308    0.527054151277192    0.298008072932435  0.0000
  O2     O2        0.359515323893015    0.508226200198240    0.295886287415192  0.0000
  O2     O2        0.863985635383642    0.543116335290355    0.685167122390090  0.0000
  O1     O1        0.624082260849629    0.468154511042470    0.687143237488371  0.0000
  O2     O2        0.242593766948233    0.281149779333269    0.304711011281052  0.0000
  O2     O2        0.250924338559950    0.754586431661718    0.301972477894965  0.0000
  O3     O3        0.762984700431801    0.283747472718251    0.660783459192948  0.0000
  O3     O3        0.738925783755829    0.734518883709424    0.649130313557222  0.0000
  O2     O2        0.136997706944862    0.281501394549719    0.118911544478362  0.0000
  O2     O2        0.359020155059763    0.753422360914460    0.117006594987292  0.0000
  O2     O2        0.861120248390463    0.289722175284783    0.857578327372315  0.0000
  O3     O3        0.637813670139833    0.749705810490217    0.863791382414866  0.0000
  O3     O3        0.826050599507122    0.798411827931463    0.849186773007939  0.0000
  O3     O3        0.664633203812049    0.202218424838982    0.869828418751659  0.0000
  O2     O2        0.147354699731658    0.772042966028989    0.116190139879640  0.0000
  O2     O2        0.344142315854704    0.264822072352910    0.113955712136587  0.0000
  O2     O2        0.628208877755017    0.469994794500097    0.012663930245275  0.0000
  O3     O3        0.875902403222932    0.548212526843744    0.028189164749168  0.0000
  O2     O2        0.363210110321729    0.507201718153834    0.935325832374790  0.0000
  O2     O2        0.130421232862187    0.528319314888754    0.938394516800783  0.0000
  O2     O2        0.763041396708322    0.316774762288982    0.050248001295682  0.0000
  O3     O3        0.730547416428920    0.721832874171041    0.064130996802412  0.0000
  O2     O2        0.239687766469986    0.290743183626710    0.928414381578464  0.0000
  O2     O2        0.253827798507683    0.745101000254767    0.931891248539271  0.0000
