data_c01270.vasp
_audit_creation_method             Generated by GULP
_audit_author_name                 Salvador R. G. Balestra
_symmetry_space_group_name_H-M     'P 1             '
_symmetry_Int_Tables_number        1

loop_
_symmetry_equiv_pos_site_id
_symmetry_equiv_pos_as_xyz
_cell_length_a                       17.1837
_cell_length_b                        7.6371
_cell_length_c                       10.1801
_cell_angle_alpha                   91.0841
_cell_angle_beta                    89.7000
_cell_angle_gamma                   89.8330

loop_
_atom_site_label
_atom_site_type_symbol
_atom_site_fract_x
_atom_site_fract_y
_atom_site_fract_z
_atom_site_charge
  Ge     Ge        0.160189999999943    0.293909999999983    0.273440000000051  0.0000
  Ge     Ge        0.662998953630998    0.709014234649996    0.702970433347224  0.0000
  Ge     Ge        0.649760553689518    0.327845576498106    0.027234914250132  0.0000
  Ge     Ge        0.346266809766331    0.323762148433696    0.958300571698300  0.0000
  Si     Si        0.044021613203594    0.004923051258861    0.357808212579697  0.0000
  Si     Si        0.444944172901885    0.011568264370163    0.369856682782618  0.0000
  Si     Si        0.947392550535630    0.981514407612353    0.617679513966168  0.0000
  Si     Si        0.547128873845722    0.994228053702225    0.623235755328262  0.0000
  Si     Si        0.553789949177632    0.017084696583400    0.126436106260372  0.0000
  Si     Si        0.942361926155993    0.007293235028726    0.099797642888445  0.0000
  Si     Si        0.445989502235538    0.006963403426065    0.878569395006399  0.0000
  Si     Si        0.056248206708493    0.000318812316328    0.859516161577018  0.0000
  Si     Si        0.332085566475879    0.720163666251300    0.274404146848417  0.0000
  Si     Si        0.831901968864191    0.276590890416212    0.719428090986438  0.0000
  Si     Si        0.844973598224692    0.677057725590047    0.706172814656345  0.0000
  Si     Si        0.652552652285213    0.296497546300940    0.717050305088970  0.0000
  Si     Si        0.152052345964317    0.703662041226606    0.274615483767084  0.0000
  Si     Si        0.342138334238857    0.315348470038876    0.273000843044214  0.0000
  Si     Si        0.843069599819577    0.693770269845016    0.014028013056618  0.0000
  Si     Si        0.152989468931082    0.694657005088041    0.969517601157546  0.0000
  Si     Si        0.332767064428498    0.726192309279231    0.967777893070217  0.0000
  Si     Si        0.164312732291085    0.293655159610469    0.959736421964698  0.0000
  Si     Si        0.663644214984112    0.734343654773558    0.013015198949069  0.0000
  Si     Si        0.831406900574826    0.300590083058792    0.028168106551074  0.0000
  O3     O3        0.101174829675271    0.168633523236163    0.369524222435412  0.0000
  O2     O2        0.382494121329111    0.854537149654867    0.361341583417243  0.0000
  O2     O2        0.883479664629605    0.132593574923271    0.643621429244710  0.0000
  O3     O3        0.606396090823994    0.834241252729566    0.601984426691829  0.0000
  O2     O2        0.907565031588421    0.791263918621339    0.627493997123191  0.0000
  O2     O2        0.596979936262076    0.172552851952405    0.629832634352535  0.0000
  O2     O2        0.097152868373129    0.830611165389316    0.361347675700181  0.0000
  O2     O2        0.403440015163195    0.198802591804073    0.352824907430159  0.0000
  O2     O2        0.980008185048108    0.001960760029021    0.471652395439821  0.0000
  O2     O2        0.482754392921286    0.009344343984146    0.512249976965241  0.0000
  O2     O2        0.999933050708526    0.018192386425376    0.220303422960339  0.0000
  O2     O2        0.514025885935593    0.980744584480629    0.265380648724933  0.0000
  O2     O2        0.019907745490447    0.998436303830419    0.715399943783756  0.0000
  O2     O2        0.501324559191525    0.956662553567762    0.758029811881344  0.0000
  O3     O3        0.585586282597647    0.213633321482021    0.123164688806631  0.0000
  O2     O2        0.897649707047998    0.822176483369965    0.098499882180148  0.0000
  O3     O3        0.412936504222220    0.202124021637192    0.868545452363182  0.0000
  O2     O2        0.098914277502127    0.814791549182398    0.880638477942376  0.0000
  O2     O2        0.372181064714761    0.876298364087233    0.882571266208572  0.0000
  O2     O2        0.115649349044157    0.161855730210086    0.867360795442417  0.0000
  O2     O2        0.625713089924191    0.882926789846190    0.106958067493616  0.0000
  O2     O2        0.881312356534124    0.166899403045357    0.113109303825906  0.0000
  O2     O2        0.491854146879167    0.980497932048960    0.012861313869366  0.0000
  O2     O2        0.988444718076446    0.031348922922556    0.964936559860567  0.0000
  O3     O3        0.128231512043617    0.506315586977095    0.296294652667208  0.0000
  O2     O2        0.361793139223116    0.521847008213961    0.294273655687084  0.0000
  O2     O2        0.864096522141035    0.470130102961781    0.687768886448222  0.0000
  O3     O3        0.630393540689647    0.496295974571726    0.695067949208359  0.0000
  O3     O3        0.255780608983720    0.278272610497591    0.323534864834453  0.0000
  O2     O2        0.241768554958555    0.734723751528538    0.317112567554836  0.0000
  O2     O2        0.742454582183270    0.262157899383211    0.673046331893716  0.0000
  O3     O3        0.759301638177502    0.715043980568786    0.654055773683702  0.0000
  O3     O3        0.158796212484190    0.232804035963345    0.109408575503215  0.0000
  O2     O2        0.340108656639961    0.771610326942905    0.122576926392961  0.0000
  O2     O2        0.832777118498360    0.242937222004665    0.874811441413008  0.0000
  O3     O3        0.657499058605809    0.788812820221851    0.862546978397477  0.0000
  O2     O2        0.851075611867373    0.732283432338751    0.859694448067505  0.0000
  O3     O3        0.640933655842994    0.248339679998464    0.868359048697742  0.0000
  O2     O2        0.142218045191531    0.752458007834853    0.121413930108875  0.0000
  O3     O3        0.351008620845085    0.264689541148472    0.120463692765477  0.0000
  O3     O3        0.624354234768345    0.546510085878566    0.033088239629231  0.0000
  O2     O2        0.868114201717826    0.494988175169448    0.044332483472473  0.0000
  O3     O3        0.371773541183941    0.539723943966752    0.937913981220562  0.0000
  O2     O2        0.129667045930629    0.491424492264295    0.950268018272800  0.0000
  O3     O3        0.743914574603345    0.300308414540278    0.080312471633681  0.0000
  O2     O2        0.753669720436903    0.720082735099254    0.055923381037870  0.0000
  O3     O3        0.252034794047267    0.291159493905425    0.907752655387899  0.0000
  O2     O2        0.242451513190723    0.718627605633004    0.926978412916513  0.0000
