data_c01201.vasp
_audit_creation_method             Generated by GULP
_audit_author_name                 Salvador R. G. Balestra
_symmetry_space_group_name_H-M     'P 1             '
_symmetry_Int_Tables_number        1

loop_
_symmetry_equiv_pos_site_id
_symmetry_equiv_pos_as_xyz
_cell_length_a                       17.1952
_cell_length_b                        7.6223
_cell_length_c                       10.2040
_cell_angle_alpha                   90.0774
_cell_angle_beta                    89.7759
_cell_angle_gamma                   89.9133

loop_
_atom_site_label
_atom_site_type_symbol
_atom_site_fract_x
_atom_site_fract_y
_atom_site_fract_z
_atom_site_charge
  Ge     Ge        0.160189999999943    0.293909999999983    0.273440000000051  0.0000
  Ge     Ge        0.328005885274355    0.742615311147488    0.281863906546937  0.0000
  Ge     Ge        0.646925310811768    0.345338410715705    0.031167462710535  0.0000
  Ge     Ge        0.344864418771078    0.349560870779536    0.960234451705891  0.0000
  Si     Si        0.041100698215422    0.009968125471397    0.360909287190555  0.0000
  Si     Si        0.447335949501487    0.024992344715460    0.362834578332063  0.0000
  Si     Si        0.943811778517455    0.009521458924782    0.620398142375647  0.0000
  Si     Si        0.549283701147973    0.020662943745855    0.617267729466143  0.0000
  Si     Si        0.547212135181215    0.031690248569728    0.108321233590766  0.0000
  Si     Si        0.940400291822628    0.028974604163008    0.103809496555737  0.0000
  Si     Si        0.439919187323240    0.035041148473934    0.860075870254438  0.0000
  Si     Si        0.052188159569352    0.017783777065147    0.863150696309082  0.0000
  Si     Si        0.830598625261020    0.305369809711461    0.722753848082333  0.0000
  Si     Si        0.660713431153151    0.729145501595781    0.711973131453252  0.0000
  Si     Si        0.839679804890493    0.707960457616147    0.713638540175031  0.0000
  Si     Si        0.652554973667300    0.323647147546577    0.719113881616684  0.0000
  Si     Si        0.146210484361482    0.705784498462581    0.282059127197132  0.0000
  Si     Si        0.343617735311905    0.330097819123597    0.272242912525559  0.0000
  Si     Si        0.840961016430905    0.717648088727254    0.018672618984090  0.0000
  Si     Si        0.147870444747939    0.707543815693738    0.974948894883330  0.0000
  Si     Si        0.328291382517211    0.754798121275942    0.969221368838881  0.0000
  Si     Si        0.160512219005120    0.306078022202426    0.963013744241972  0.0000
  Si     Si        0.660777678940074    0.748909112195413    0.017795377465756  0.0000
  Si     Si        0.828928015007509    0.321441212123221    0.030974996420505  0.0000
  O3     O3        0.106418927921937    0.158298906379490    0.372294461691355  0.0000
  O3     O3        0.383835843646080    0.873910709375652    0.380904343087205  0.0000
  O2     O2        0.885475178446546    0.171133882701323    0.645711921596424  0.0000
  O2     O2        0.608613515411073    0.856554041165044    0.623282223058867  0.0000
  O2     O2        0.897215249544719    0.826577220866502    0.627956241836600  0.0000
  O2     O2        0.595075516425116    0.202799893632606    0.634971367688931  0.0000
  O2     O2        0.083040062941239    0.820101064411353    0.362199912333241  0.0000
  O2     O2        0.403556248885037    0.211983965076212    0.355751765316864  0.0000
  O2     O2        0.977983726346103    0.024766722657692    0.475310882148944  0.0000
  O2     O2        0.510671942569750    0.026118707621783    0.476032430510837  0.0000
  O2     O2        0.998079491418616    0.040132724314202    0.223912457174252  0.0000
  O2     O2        0.492940325496287    0.981406964481535    0.228844725816715  0.0000
  O2     O2        0.016018011447864    0.012811755015420    0.719227555241212  0.0000
  O2     O2        0.480339762709375    0.995437258879156    0.722013247942810  0.0000
  O3     O3        0.580519489653026    0.226798377240044    0.120797708970808  0.0000
  O2     O2        0.895180973819829    0.843455813853611    0.104405372476033  0.0000
  O3     O3        0.408241857431416    0.232091948975408    0.863484878280395  0.0000
  O2     O2        0.091284955470086    0.829472676994775    0.890768515631041  0.0000
  O2     O2        0.366835395769257    0.905265633564311    0.880450455961633  0.0000
  O2     O2        0.114504538455094    0.175037747530996    0.866851942913748  0.0000
  O2     O2        0.621700195890447    0.902352754020832    0.102193831627548  0.0000
  O2     O2        0.879140388104002    0.187823887749240    0.116755285481249  0.0000
  O2     O2        0.500855502278629    0.001815710924793    0.974896701763891  0.0000
  O2     O2        0.985269516723313    0.056241288438746    0.968049678066845  0.0000
  O3     O3        0.145326909712173    0.506524328383303    0.327560044882556  0.0000
  O3     O3        0.342368028220035    0.526547412058562    0.326029191669834  0.0000
  O2     O2        0.859197927446823    0.502997280888108    0.691606617454926  0.0000
  O2     O2        0.633221745145841    0.528431798183906    0.692717755849121  0.0000
  O3     O3        0.258094045973468    0.246438901252293    0.283127450454115  0.0000
  O3     O3        0.230717727060089    0.789967537308226    0.303091185319482  0.0000
  O2     O2        0.741518169304743    0.282754056636467    0.676385404232715  0.0000
  O2     O2        0.751049008710824    0.746821178185943    0.670958407154156  0.0000
  O3     O3        0.134535838519652    0.269140659351563    0.111246676551654  0.0000
  O3     O3        0.352826350248474    0.774254490134238    0.119613944021550  0.0000
  O2     O2        0.832202855809832    0.268467165017918    0.877719949210174  0.0000
  O2     O2        0.651508343325973    0.785959556609188    0.862920023727836  0.0000
  O2     O2        0.852534232985214    0.759834395875872    0.865149401369369  0.0000
  O3     O3        0.638737752806160    0.279586522954986    0.869982335213515  0.0000
  O2     O2        0.124816950062921    0.715452152338968    0.127507143483822  0.0000
  O3     O3        0.371706197422670    0.327103945149527    0.121784599847550  0.0000
  O3     O3        0.622597145457724    0.563239545527834    0.050118704161856  0.0000
  O2     O2        0.863950796841409    0.517006332249570    0.049116348315951  0.0000
  O3     O3        0.353030573867497    0.565793573399665    0.914874398207434  0.0000
  O2     O2        0.140880633185617    0.507967802657270    0.924421613002788  0.0000
  O3     O3        0.741297286217376    0.314508836316357    0.081436454700149  0.0000
  O2     O2        0.751246775994123    0.746549593933501    0.056839083723158  0.0000
  O3     O3        0.251393774139361    0.274242633387305    0.944175876390641  0.0000
  O2     O2        0.235391728981633    0.776107742458207    0.958532477855170  0.0000
