data_c01279.vasp
_audit_creation_method             Generated by GULP
_audit_author_name                 Salvador R. G. Balestra
_symmetry_space_group_name_H-M     'P 1             '
_symmetry_Int_Tables_number        1

loop_
_symmetry_equiv_pos_site_id
_symmetry_equiv_pos_as_xyz
_cell_length_a                       17.1984
_cell_length_b                        7.6435
_cell_length_c                       10.1834
_cell_angle_alpha                   91.0510
_cell_angle_beta                    90.1711
_cell_angle_gamma                   89.5976

loop_
_atom_site_label
_atom_site_type_symbol
_atom_site_fract_x
_atom_site_fract_y
_atom_site_fract_z
_atom_site_charge
  Ge     Ge        0.160189999999943    0.293909999999983    0.273440000000051  0.0000
  Ge     Ge        0.665939027577918    0.701224525259569    0.703371039716276  0.0000
  Ge     Ge        0.857381180738402    0.648699383104514    0.017490417018548  0.0000
  Ge     Ge        0.668424061012661    0.704184246536785    0.020784935131984  0.0000
  Si     Si        0.048602175075616    0.004056723307274    0.352067852835023  0.0000
  Si     Si        0.449206595525846    0.008875178591270    0.364275708847229  0.0000
  Si     Si        0.950426375023802    0.964187245027401    0.608227312204751  0.0000
  Si     Si        0.549395007867966    0.990198395773868    0.621655227646542  0.0000
  Si     Si        0.557373032216648    0.993763959429649    0.118872908039788  0.0000
  Si     Si        0.950219310712956    0.969307483904403    0.096056626008534  0.0000
  Si     Si        0.447269183756420    0.966757589457259    0.878970243397134  0.0000
  Si     Si        0.060718698927617    0.975653850154276    0.851634339190718  0.0000
  Si     Si        0.339226609836933    0.708878789718531    0.260600014098476  0.0000
  Si     Si        0.834621883849318    0.259327431111239    0.702296589370321  0.0000
  Si     Si        0.851681673450934    0.659751149543975    0.707649598157038  0.0000
  Si     Si        0.657141570698109    0.298137713493899    0.697221276125809  0.0000
  Si     Si        0.159144195951193    0.703564283904637    0.259645498068845  0.0000
  Si     Si        0.343302607265051    0.307371745452235    0.276176580446607  0.0000
  Si     Si        0.653868017863450    0.302195106244330    0.009846162756454  0.0000
  Si     Si        0.345396026567198    0.282023316428281    0.968303903261840  0.0000
  Si     Si        0.159233271851881    0.670745789207308    0.953867626632991  0.0000
  Si     Si        0.338633833935912    0.678552958563421    0.954181603876556  0.0000
  Si     Si        0.165298800753102    0.268785261441764    0.961873567100812  0.0000
  Si     Si        0.831741213816206    0.247976652643684    0.012435539212863  0.0000
  O3     O3        0.100983262124606    0.174010011462287    0.372925562478413  0.0000
  O2     O2        0.392379353868902    0.845056122155994    0.339589914965955  0.0000
  O2     O2        0.888180299622203    0.121451562091273    0.624194273580631  0.0000
  O3     O3        0.612378358018447    0.837404669451011    0.604224984988033  0.0000
  O2     O2        0.908088219843587    0.777946913046304    0.619396969883941  0.0000
  O2     O2        0.595342383045016    0.173129634032647    0.626316205458789  0.0000
  O2     O2        0.106600746903786    0.838484088715599    0.341668411939004  0.0000
  O2     O2        0.400938082121711    0.189896154465365    0.362362683383673  0.0000
  O2     O2        0.986304444098060    0.974590361311872    0.464437099309017  0.0000
  O2     O2        0.486523249356692    0.989798927860424    0.506552874805757  0.0000
  O2     O2        0.001455092287782    0.032329588012389    0.217750714795359  0.0000
  O2     O2        0.518225271540784    0.015745699316598    0.259928151528933  0.0000
  O2     O2        0.021299377068460    0.984636308492838    0.709939408188391  0.0000
  O2     O2        0.503646994936071    0.964057216432373    0.756433770338950  0.0000
  O2     O2        0.590618617234744    0.179739949208246    0.074708879710426  0.0000
  O3     O3        0.923512405919163    0.770723775695913    0.108441864290180  0.0000
  O2     O2        0.401249140064242    0.151112320865867    0.887967662933660  0.0000
  O2     O2        0.105683911601566    0.789897971992727    0.862145404236978  0.0000
  O2     O2        0.386769019715099    0.806777447661874    0.862462140177596  0.0000
  O2     O2        0.120351984450541    0.136680715758331    0.864764334382250  0.0000
  O3     O3        0.623846613867419    0.849739811598881    0.127973239764262  0.0000
  O2     O2        0.873169081063538    0.090710960058840    0.087033771814250  0.0000
  O2     O2        0.495228509506258    0.929079009464465    0.010603520272479  0.0000
  O2     O2        0.995943212911268    0.997772766317187    0.961820912890602  0.0000
  O3     O3        0.133677767078454    0.510112655026070    0.292196777890497  0.0000
  O2     O2        0.364655220016818    0.511816379988136    0.296597331808734  0.0000
  O2     O2        0.853628025063408    0.456486555142544    0.657478462713040  0.0000
  O3     O3        0.649521776004268    0.491053052359175    0.643737432609982  0.0000
  O3     O3        0.256136467396832    0.273687376090717    0.320258096765040  0.0000
  O2     O2        0.249040595351049    0.737501630407738    0.298801052225514  0.0000
  O2     O2        0.744008997876366    0.219603828649299    0.672051220615206  0.0000
  O3     O3        0.765063662248268    0.735615799664402    0.698427866399897  0.0000
  O3     O3        0.151423575599430    0.222087853653263    0.112150227056378  0.0000
  O2     O2        0.348494607561733    0.738609079068743    0.105658882406482  0.0000
  O2     O2        0.849992031970581    0.242719551340616    0.857161802900362  0.0000
  O1     O1        0.638875220133260    0.738992188152721    0.862706340434101  0.0000
  O3     O3        0.883386005526984    0.669413402099989    0.854913869221334  0.0000
  O2     O2        0.641397825497214    0.312766090042262    0.853284041373758  0.0000
  O2     O2        0.147223360728382    0.734903987738285    0.104110173257089  0.0000
  O2     O2        0.353941220352882    0.250763040317264    0.123463248678598  0.0000
  O3     O3        0.645658238842749    0.494223732585160    0.069142391659030  0.0000
  O3     O3        0.860539336324929    0.434219922567277    0.067202785933359  0.0000
  O2     O2        0.369562897199204    0.479936635772896    0.934011604614369  0.0000
  O2     O2        0.135229040252777    0.467634115748829    0.938222597156390  0.0000
  O2     O2        0.740007799202026    0.224986575739918    0.037053540102489  0.0000
  O1     O1        0.766065997161953    0.731216334688530    0.036043006803306  0.0000
  O2     O2        0.256340097884502    0.251221571124167    0.927030609789077  0.0000
  O2     O2        0.248681842173162    0.691964698043314    0.912484512562753  0.0000
