data_c01283.vasp
_audit_creation_method             Generated by GULP
_audit_author_name                 Salvador R. G. Balestra
_symmetry_space_group_name_H-M     'P 1             '
_symmetry_Int_Tables_number        1

loop_
_symmetry_equiv_pos_site_id
_symmetry_equiv_pos_as_xyz
_cell_length_a                       17.2180
_cell_length_b                        7.6773
_cell_length_c                       10.1825
_cell_angle_alpha                   91.2530
_cell_angle_beta                    90.0000
_cell_angle_gamma                   90.0000

loop_
_atom_site_label
_atom_site_type_symbol
_atom_site_fract_x
_atom_site_fract_y
_atom_site_fract_z
_atom_site_charge
  Ge     Ge        0.160189999999943    0.293909999999983    0.273440000000051  0.0000
  Ge     Ge        0.660189978855088    0.694169632548394    0.691978270544402  0.0000
  Ge     Ge        0.332721421651646    0.697656313611742    0.948716566729957  0.0000
  Ge     Ge        0.832721446576419    0.290423591289894    0.016701691011668  0.0000
  Si     Si        0.049206407994669    0.996238406843349    0.352194838133205  0.0000
  Si     Si        0.449452594030034    0.008355311632066    0.355964643829312  0.0000
  Si     Si        0.949452586498973    0.979724490321251    0.609453635669679  0.0000
  Si     Si        0.549206434270958    0.991841251824023    0.613223408807938  0.0000
  Si     Si        0.552469930794840    0.997840443944557    0.105047363829007  0.0000
  Si     Si        0.941412338622057    0.000073169914155    0.101064925008988  0.0000
  Si     Si        0.441412355993585    0.988006687551769    0.864353327147919  0.0000
  Si     Si        0.052469937771985    0.990239187110661    0.860370890143313  0.0000
  Si     Si        0.338872423829697    0.710388963528957    0.260954362611405  0.0000
  Si     Si        0.838872450554138    0.277690862925944    0.704463954049107  0.0000
  Si     Si        0.842772003190049    0.681100960159819    0.700539913703969  0.0000
  Si     Si        0.660315990129538    0.288208582956055    0.696186707856974  0.0000
  Si     Si        0.160315959255201    0.699871079285422    0.269231574729080  0.0000
  Si     Si        0.342772044159004    0.306978835791892    0.264878360231919  0.0000
  Si     Si        0.651549570964028    0.306273425145694    0.005230493907469  0.0000
  Si     Si        0.840244068324111    0.691441183206462    0.007408423294585  0.0000
  Si     Si        0.340244138865612    0.296638691077552    0.958009808673493  0.0000
  Si     Si        0.151549538200213    0.681806205373459    0.960187727830322  0.0000
  Si     Si        0.159911982495413    0.283442872293865    0.961426523635820  0.0000
  Si     Si        0.659911938194480    0.704636735702238    0.003991701302715  0.0000
  O3     O3        0.099145501553052    0.170802935325978    0.366965061459983  0.0000
  O2     O2        0.392983548076626    0.841438389950687    0.344959276104418  0.0000
  O2     O2        0.892983586921063    0.146641484091660    0.620459023645934  0.0000
  O3     O3        0.599145488898243    0.817276667893597    0.598453179592786  0.0000
  O2     O2        0.902258471282916    0.799786519540906    0.621102295156092  0.0000
  O2     O2        0.609352278748167    0.152194568116499    0.612263360399249  0.0000
  O2     O2        0.109352209067658    0.835885043797074    0.353154881471207  0.0000
  O2     O2        0.402258525827409    0.188293326010088    0.344315976762906  0.0000
  O2     O2        0.987007165995204    0.979430381909869    0.466553159568019  0.0000
  O2     O2        0.487007180775634    0.008649380948969    0.498865111894430  0.0000
  O2     O2        0.003535178787936    0.991687520864715    0.215317291106737  0.0000
  O2     O2        0.518588329260658    0.998468525110425    0.250826930686703  0.0000
  O2     O2        0.018588336073333    0.989611166542915    0.714591328451864  0.0000
  O2     O2        0.503535213685985    0.996392133977980    0.750100976230377  0.0000
  O2     O2        0.589862232232163    0.186552106867317    0.079161594075598  0.0000
  O2     O2        0.891217573487684    0.823258132495438    0.095118348884550  0.0000
  O2     O2        0.391217717044301    0.164821874493302    0.870299901603114  0.0000
  O2     O2        0.089862173546120    0.801527470805327    0.886256657495363  0.0000
  O3     O3        0.383841266890994    0.827149791668256    0.844294870839722  0.0000
  O2     O2        0.115529072454557    0.144850784880083    0.868310336477010  0.0000
  O2     O2        0.615529005909533    0.843228733770804    0.097107925377931  0.0000
  O3     O3        0.883841354113628    0.160930259932464    0.121123396839311  0.0000
  O2     O2        0.484255819873151    0.956952050166336    0.002349963297429  0.0000
  O2     O2        0.984255834780259    0.031127648982015    0.963068289892479  0.0000
  O3     O3        0.132421387917504    0.507414701991555    0.298298143713216  0.0000
  O2     O2        0.366173816639487    0.510754455308280    0.280566853288033  0.0000
  O2     O2        0.866173841873215    0.477325379825049    0.684851545843829  0.0000
  O3     O3        0.632421360636367    0.480664935678611    0.667120234589291  0.0000
  O3     O3        0.256625290370141    0.275195754586335    0.317213202387720  0.0000
  O2     O2        0.250089839463817    0.727053168287103    0.311062182006872  0.0000
  O2     O2        0.750089879510927    0.261026696563648    0.654356100804890  0.0000
  O3     O3        0.756625256909336    0.712883823524475    0.648205005459642  0.0000
  O3     O3        0.150198403189322    0.228890385274104    0.110955281001881  0.0000
  O3     O3        0.342835318405406    0.763550592340641    0.110526695681594  0.0000
  O3     O3        0.842835326917955    0.224529211919446    0.854891592356061  0.0000
  O3     O3        0.650198411036753    0.759189311735231    0.854462974482287  0.0000
  O2     O2        0.847506675053024    0.736967286010137    0.853992605630610  0.0000
  O2     O2        0.653120634654685    0.253119320930633    0.851428519065764  0.0000
  O2     O2        0.153120575320333    0.734960222621519    0.113989733084233  0.0000
  O2     O2        0.347506799270283    0.251112657158491    0.111425644638552  0.0000
  O2     O2        0.626275849863594    0.509237139918272    0.022264898128820  0.0000
  O3     O3        0.868682655763820    0.499087118658825    0.034564913984538  0.0000
  O3     O3        0.368682657168784    0.488992797874039    0.930853232701078  0.0000
  O2     O2        0.126275876741650    0.478842448582354    0.943153217332684  0.0000
  O3     O3        0.736567369276707    0.280052403476926    0.063187061892569  0.0000
  O2     O2        0.749828821071009    0.707260574523279    0.046888814569235  0.0000
  O2     O2        0.249828886793401    0.280819007772314    0.918529465433359  0.0000
  O3     O3        0.236567339309149    0.708027426243020    0.902231168206104  0.0000
