data_c01206.vasp
_audit_creation_method             Generated by GULP
_audit_author_name                 Salvador R. G. Balestra
_symmetry_space_group_name_H-M     'P 1             '
_symmetry_Int_Tables_number        1

loop_
_symmetry_equiv_pos_site_id
_symmetry_equiv_pos_as_xyz
_cell_length_a                       17.1110
_cell_length_b                        7.6534
_cell_length_c                       10.2086
_cell_angle_alpha                   90.5870
_cell_angle_beta                    89.7651
_cell_angle_gamma                   89.6282

loop_
_atom_site_label
_atom_site_type_symbol
_atom_site_fract_x
_atom_site_fract_y
_atom_site_fract_z
_atom_site_charge
  Ge     Ge        0.160189999999943    0.293909999999983    0.273440000000051  0.0000
  Ge     Ge        0.333254409015904    0.732597217881430    0.273643250594225  0.0000
  Ge     Ge        0.642287266334640    0.354702992567981    0.028874237675731  0.0000
  Ge     Ge        0.828655359689744    0.321214888208737    0.030749272330283  0.0000
  Si     Si        0.044976451167301    0.006267789291120    0.361839797100314  0.0000
  Si     Si        0.449736675104698    0.019265535283368    0.356493027650665  0.0000
  Si     Si        0.943847734806528    0.007260758926202    0.618227605671582  0.0000
  Si     Si        0.547950829916661    0.024839066061739    0.615314844695348  0.0000
  Si     Si        0.547131692684383    0.033804653934286    0.100666578695833  0.0000
  Si     Si        0.941134862911030    0.029310444706452    0.108202644082946  0.0000
  Si     Si        0.435994279522317    0.020158823812788    0.857984681144123  0.0000
  Si     Si        0.051029787610626    0.018025232302002    0.865090675942399  0.0000
  Si     Si        0.830676573675359    0.303534635497469    0.718287841930725  0.0000
  Si     Si        0.660237193457397    0.730279045119004    0.706733767728975  0.0000
  Si     Si        0.839595480855327    0.707976382904639    0.710168633805845  0.0000
  Si     Si        0.651876540096010    0.328771282357730    0.714440561803716  0.0000
  Si     Si        0.149240671248543    0.701010386018077    0.280744083040517  0.0000
  Si     Si        0.345058328734918    0.324548248068588    0.267885433488070  0.0000
  Si     Si        0.842761218081424    0.718917310753949    0.013671296396380  0.0000
  Si     Si        0.339646545717361    0.332631631444637    0.961755736975598  0.0000
  Si     Si        0.148813494004027    0.706520168435362    0.973073193082685  0.0000
  Si     Si        0.328471459083715    0.733728453544964    0.962815208902707  0.0000
  Si     Si        0.159352133320967    0.306145843254627    0.962597158231394  0.0000
  Si     Si        0.661015910448599    0.751540241398130    0.012894743587286  0.0000
  O3     O3        0.108744949684943    0.157213268770636    0.372961165879321  0.0000
  O3     O3        0.386146084992547    0.869515050091322    0.372934090734238  0.0000
  O2     O2        0.885475068471695    0.171466069314629    0.635933764087405  0.0000
  O2     O2        0.607130207864883    0.860387786827067    0.622788268110534  0.0000
  O2     O2        0.897219625369132    0.824787098352502    0.623845533242412  0.0000
  O2     O2        0.594025872311277    0.205555004539983    0.632661393283417  0.0000
  O2     O2        0.090031365994068    0.820999665763234    0.365283340778003  0.0000
  O2     O2        0.405644345654125    0.204773251799289    0.346203075985132  0.0000
  O2     O2        0.980952810508683    0.019039516059359    0.475080857850169  0.0000
  O2     O2        0.511374505771218    0.025289555259856    0.472345763812931  0.0000
  O2     O2        0.002958464605625    0.027347716443239    0.223131799915274  0.0000
  O2     O2        0.497222247216509    0.973929733399458    0.223983291133456  0.0000
  O2     O2        0.014008871755464    0.010968394838222    0.721899523957958  0.0000
  O2     O2        0.477056227238019    0.008281498193452    0.717647165115332  0.0000
  O3     O3        0.572859983530310    0.233630128324580    0.110378740044556  0.0000
  O2     O2        0.893501112986157    0.848645596497042    0.101957089656614  0.0000
  O2     O2        0.395144262581417    0.210701481139186    0.872080145856275  0.0000
  O2     O2        0.090174764636391    0.829972864170727    0.893880302655286  0.0000
  O2     O2        0.372957743223641    0.864929172061059    0.866356739063667  0.0000
  O2     O2        0.114069096083167    0.173953265744689    0.866415416793227  0.0000
  O2     O2        0.626193484573590    0.916374650167795    0.092229740817429  0.0000
  O3     O3        0.881147671990587    0.185942107240696    0.130532743746722  0.0000
  O2     O2        0.499564596622763    0.992024483819345    0.969536584191731  0.0000
  O2     O2        0.984437061589853    0.064084102725035    0.970667303221126  0.0000
  O3     O3        0.126015587648929    0.502939593993273    0.301379293425901  0.0000
  O3     O3        0.367948769284261    0.522944733585638    0.291897485305546  0.0000
  O2     O2        0.860128905999161    0.502379902610322    0.696189792406318  0.0000
  O2     O2        0.630980151914483    0.531762435472449    0.686169922173365  0.0000
  O3     O3        0.257700976597545    0.284750927178468    0.314583566145096  0.0000
  O3     O3        0.237269703249217    0.737316893539449    0.324875592465257  0.0000
  O2     O2        0.741045500506605    0.288873929703134    0.669568700050409  0.0000
  O2     O2        0.750880303099784    0.743514115441795    0.663261058690416  0.0000
  O3     O3        0.149686723544656    0.240452396379945    0.109859963540384  0.0000
  O3     O3        0.339134110763164    0.795001441654450    0.111747368949070  0.0000
  O3     O3        0.831999221383044    0.252664318582449    0.869101127235543  0.0000
  O2     O2        0.653766106946984    0.786236040713453    0.858145831071574  0.0000
  O2     O2        0.850986066967188    0.768394426095747    0.860697045621593  0.0000
  O3     O3        0.641084063345960    0.289906368954732    0.866299805261893  0.0000
  O2     O2        0.143385701622268    0.750657347871840    0.126867620211361  0.0000
  O2     O2        0.350916984145051    0.278969705467911    0.112448467038312  0.0000
  O3     O3        0.617543759321684    0.573224413088007    0.046408413268010  0.0000
  O3     O3        0.871173132557146    0.525232086536458    0.039710069519540  0.0000
  O2     O2        0.361945543322667    0.535921223405191    0.943323932549860  0.0000
  O2     O2        0.125861640008874    0.503884609728721    0.948513629365411  0.0000
  O1     O1        0.734574854103202    0.321958007959863    0.086008994048612  0.0000
  O2     O2        0.751384224463050    0.730274205409716    0.053236127059429  0.0000
  O2     O2        0.250171358081596    0.303154710561110    0.920935812918929  0.0000
  O2     O2        0.237129870934535    0.738645185846209    0.924592244183224  0.0000
