data_c01233.vasp
_audit_creation_method             Generated by GULP
_audit_author_name                 Salvador R. G. Balestra
_symmetry_space_group_name_H-M     'P 1             '
_symmetry_Int_Tables_number        1

loop_
_symmetry_equiv_pos_site_id
_symmetry_equiv_pos_as_xyz
_cell_length_a                       17.1456
_cell_length_b                        7.6302
_cell_length_c                       10.2494
_cell_angle_alpha                   88.7384
_cell_angle_beta                    89.2815
_cell_angle_gamma                   90.4478

loop_
_atom_site_label
_atom_site_type_symbol
_atom_site_fract_x
_atom_site_fract_y
_atom_site_fract_z
_atom_site_charge
  Ge     Ge        0.160189999999943    0.293909999999983    0.273440000000051  0.0000
  Ge     Ge        0.859201521256907    0.313801568351216    0.689717446241663  0.0000
  Ge     Ge        0.671437806510269    0.277615543093317    0.690072471512542  0.0000
  Ge     Ge        0.658057252002660    0.649882647530584    0.018526722045987  0.0000
  Si     Si        0.053189819115024    0.983996981209691    0.352581170758342  0.0000
  Si     Si        0.456474855222008    0.982161952801699    0.359643940150662  0.0000
  Si     Si        0.960404807632771    0.003132422761941    0.612474152630501  0.0000
  Si     Si        0.554389904838018    0.989497800412655    0.616007390335214  0.0000
  Si     Si        0.564414664541663    0.963154922496063    0.115402256493938  0.0000
  Si     Si        0.950174821716283    0.976250612854480    0.098086946820611  0.0000
  Si     Si        0.452903313742167    0.989291595361029    0.874549957052170  0.0000
  Si     Si        0.066550599730592    0.988290576243541    0.858947206410003  0.0000
  Si     Si        0.351384635486092    0.680291283502411    0.261358092129551  0.0000
  Si     Si        0.660055600422075    0.687987578990038    0.711055880246030  0.0000
  Si     Si        0.839979416205594    0.718316531432421    0.714132675244577  0.0000
  Si     Si        0.170968717954936    0.704479343769981    0.261994340152598  0.0000
  Si     Si        0.343112134516941    0.276390299693490    0.270939650860549  0.0000
  Si     Si        0.673953160233820    0.245330043898824    0.997987551583450  0.0000
  Si     Si        0.839345212248042    0.681632143778615    0.021114383396092  0.0000
  Si     Si        0.341818086381082    0.277310818045124    0.964210278520627  0.0000
  Si     Si        0.173951148308523    0.696852448731739    0.957407262613030  0.0000
  Si     Si        0.354140041139822    0.674664389028102    0.957467185247179  0.0000
  Si     Si        0.161915646329102    0.296234099802238    0.962812948543424  0.0000
  Si     Si        0.855252035938398    0.289170267797247    0.000195695997405  0.0000
  O3     O3        0.093348083260816    0.172635929245821    0.363748396213046  0.0000
  O2     O2        0.407879536946671    0.803068230593376    0.342412355935604  0.0000
  O3     O3        0.927942480573397    0.198616147416881    0.602466248206121  0.0000
  O2     O2        0.605747621569908    0.813983309386896    0.624474050070601  0.0000
  O2     O2        0.885408888805923    0.880787507186703    0.646569643591551  0.0000
  O3     O3        0.612366386534529    0.152513967029032    0.593787191443889  0.0000
  O2     O2        0.123422548632313    0.844931393760378    0.343899151693614  0.0000
  O2     O2        0.399995773917510    0.149173312151269    0.350403211861322  0.0000
  O2     O2        0.998580013486039    0.943232338148484    0.477361396570126  0.0000
  O2     O2        0.492905026567736    0.973637293028575    0.501524765081187  0.0000
  O2     O2        0.000156113247442    0.970043530874998    0.226716198769587  0.0000
  O2     O2        0.526277902449504    0.002061243967228    0.254847458956810  0.0000
  O2     O2        0.027222795767691    0.983312262583380    0.719559301001539  0.0000
  O2     O2        0.505998466452828    0.020155229923757    0.748528788734492  0.0000
  O2     O2        0.638430216660277    0.092750622050443    0.092185864309622  0.0000
  O2     O2        0.888632935641090    0.816109893275834    0.105828438959545  0.0000
  O2     O2        0.388297281659984    0.140978932790980    0.877573653366515  0.0000
  O2     O2        0.129897839971544    0.833502168375501    0.864455491054513  0.0000
  O2     O2        0.411021828415983    0.798530139073736    0.869819720907408  0.0000
  O2     O2        0.107171955721128    0.178060469290876    0.873444443946701  0.0000
  O3     O3        0.593379123454114    0.764811730758445    0.113424564999824  0.0000
  O2     O2        0.906303808001482    0.161891683524294    0.091504769041013  0.0000
  O2     O2        0.502963754336721    0.006620013391190    0.003458978535037  0.0000
  O2     O2        0.003239014635873    0.949981928008296    0.971216005864279  0.0000
  O3     O3        0.140119729995913    0.511670130227807    0.296189986954598  0.0000
  O2     O2        0.369778681502200    0.477338469427434    0.293334320296393  0.0000
  O3     O3        0.879097000382818    0.536480708217132    0.677580679286164  0.0000
  O3     O3        0.636681484849649    0.488901402829214    0.688391435556678  0.0000
  O3     O3        0.254830959252045    0.250794358883933    0.319035107717405  0.0000
  O2     O2        0.261974930579864    0.720117701536557    0.299109964185323  0.0000
  O1     O1        0.766483900268346    0.276131549508679    0.637351951428963  0.0000
  O2     O2        0.750536852573354    0.717675007184531    0.666154918500313  0.0000
  O3     O3        0.147574045311979    0.240865281876089    0.112087142677415  0.0000
  O2     O2        0.366243689299108    0.722290192670562    0.108308893401877  0.0000
  O3     O3        0.869823267423354    0.244981337302173    0.850709038747636  0.0000
  O3     O3        0.649796490440160    0.734423115043753    0.861859488290251  0.0000
  O2     O2        0.837773845686193    0.743087819520720    0.869748497192125  0.0000
  O3     O3        0.668399331124233    0.193244020979900    0.848265315495912  0.0000
  O2     O2        0.162118095448739    0.747416209103976    0.107883994624871  0.0000
  O2     O2        0.347859403985866    0.232079621535018    0.117725508147011  0.0000
  O3     O3        0.632719430422498    0.430561392429166    0.021246485850546  0.0000
  O2     O2        0.879105075173527    0.489678439459493    0.030554789765418  0.0000
  O2     O2        0.376091032932133    0.472596356718976    0.934158482433597  0.0000
  O2     O2        0.140851392151325    0.500469424226615    0.937783899820385  0.0000
  O2     O2        0.764264262353910    0.266787397216375    0.035496782754916  0.0000
  O3     O3        0.751795053847061    0.675230342429651    0.075023819932226  0.0000
  O2     O2        0.251941754651104    0.266620459777357    0.923318133909519  0.0000
  O2     O2        0.264948931486190    0.706860361288576    0.918353907021181  0.0000
