data_c01209.vasp
_audit_creation_method             Generated by GULP
_audit_author_name                 Salvador R. G. Balestra
_symmetry_space_group_name_H-M     'P 1             '
_symmetry_Int_Tables_number        1

loop_
_symmetry_equiv_pos_site_id
_symmetry_equiv_pos_as_xyz
_cell_length_a                       17.1988
_cell_length_b                        7.6280
_cell_length_c                       10.1908
_cell_angle_alpha                   89.8058
_cell_angle_beta                    89.7977
_cell_angle_gamma                   90.2064

loop_
_atom_site_label
_atom_site_type_symbol
_atom_site_fract_x
_atom_site_fract_y
_atom_site_fract_z
_atom_site_charge
  Ge     Ge        0.160189999999943    0.293909999999983    0.273440000000051  0.0000
  Ge     Ge        0.326981705352051    0.750160134174579    0.282493403666635  0.0000
  Ge     Ge        0.348609318285413    0.362765241859802    0.961412053016113  0.0000
  Ge     Ge        0.161428082737975    0.305054640603437    0.957120128426431  0.0000
  Si     Si        0.041448978419018    0.006810830575697    0.357377147398984  0.0000
  Si     Si        0.447353036935712    0.035741213616123    0.359806771850057  0.0000
  Si     Si        0.941257995228972    0.009126224013837    0.615210880573148  0.0000
  Si     Si        0.546823245457071    0.019508580041318    0.616337177964391  0.0000
  Si     Si        0.550101685440573    0.023205414407725    0.103944114189447  0.0000
  Si     Si        0.939663315285293    0.034063056789300    0.101045850806435  0.0000
  Si     Si        0.440640826586159    0.046215947693363    0.860479528664021  0.0000
  Si     Si        0.049449394768950    0.017585473006195    0.860284254334302  0.0000
  Si     Si        0.832073342957621    0.308563266541688    0.717235928395772  0.0000
  Si     Si        0.655698633446932    0.723353958173603    0.712106335090328  0.0000
  Si     Si        0.835056028005491    0.711445049141791    0.708574452445700  0.0000
  Si     Si        0.653289452167122    0.320214171845958    0.717901778151809  0.0000
  Si     Si        0.146837601496150    0.699545816131830    0.283152542874749  0.0000
  Si     Si        0.344159632462233    0.341665788509217    0.272693525477966  0.0000
  Si     Si        0.651067991961992    0.333458269919859    0.024474100844056  0.0000
  Si     Si        0.838926270623142    0.721388592438736    0.014347298060180  0.0000
  Si     Si        0.147911152542190    0.708365172139569    0.972160436704764  0.0000
  Si     Si        0.326022633231913    0.768283041354499    0.968585835180087  0.0000
  Si     Si        0.658811484170632    0.731949990633396    0.018205758302372  0.0000
  Si     Si        0.830121845180153    0.323100700724656    0.024241248699259  0.0000
  O3     O3        0.108213630562295    0.151303848084855    0.372068159233476  0.0000
  O3     O3        0.384172811143991    0.883135441551566    0.377775606692307  0.0000
  O2     O2        0.887665904269873    0.179378375270464    0.637596919090566  0.0000
  O2     O2        0.601804881342171    0.849089945332504    0.625580148810104  0.0000
  O2     O2        0.888812420697044    0.834054742672571    0.618801347190571  0.0000
  O2     O2        0.596874231049478    0.195138312681612    0.637212440748669  0.0000
  O2     O2        0.080683843244774    0.814815549400966    0.353716028953414  0.0000
  O2     O2        0.402718220400290    0.221229791903301    0.357488815460519  0.0000
  O2     O2        0.979015612305763    0.020951617490226    0.472740817668714  0.0000
  O2     O2        0.511138502733314    0.030842284750792    0.472811813705330  0.0000
  O2     O2        0.996824740974799    0.040891239381293    0.222103984107393  0.0000
  O2     O2        0.491942403829786    0.003180297859327    0.223751918471204  0.0000
  O2     O2        0.010191623544282    0.995566284989400    0.719514791953852  0.0000
  O2     O2        0.475913787139628    0.004861915843565    0.718425063413958  0.0000
  O2     O2        0.595039986923568    0.209881090806705    0.110660666962968  0.0000
  O2     O2        0.894811765261499    0.847670393740889    0.096586375041877  0.0000
  O3     O3        0.415195212281804    0.246728401522268    0.869399158251201  0.0000
  O2     O2        0.085253657656404    0.832316924932794    0.904414941935841  0.0000
  O2     O2        0.365616397405412    0.922320641562490    0.883692555172602  0.0000
  O3     O3        0.113831093651675    0.166815981054065    0.850348712437455  0.0000
  O2     O2        0.612448598142669    0.866071730729510    0.109125729905715  0.0000
  O2     O2        0.877614297384639    0.191103116508489    0.115739494721141  0.0000
  O2     O2        0.504246747024290    0.001593330630592    0.969427857529076  0.0000
  O2     O2        0.986152086251888    0.074435329192820    0.967984828672032  0.0000
  O3     O3        0.146512484476109    0.503048884269379    0.336167137246193  0.0000
  O3     O3        0.340403024725676    0.535210938447802    0.331283505481435  0.0000
  O2     O2        0.855883580870576    0.508544485199310    0.682964723398791  0.0000
  O2     O2        0.632056056102521    0.521661229572877    0.685856032088964  0.0000
  O3     O3        0.259094374280567    0.252933405350473    0.274473932181063  0.0000
  O3     O3        0.229333891874901    0.794164189369985    0.304874122570520  0.0000
  O2     O2        0.742177181705557    0.278400700646612    0.677786430758074  0.0000
  O2     O2        0.745659230432863    0.749617764308956    0.672344126660285  0.0000
  O1     O1        0.130720581420503    0.267833739467417    0.114645814122587  0.0000
  O3     O3        0.350810347597730    0.781246434876420    0.119571364970396  0.0000
  O2     O2        0.840811989399572    0.272483694171520    0.871911726963041  0.0000
  O2     O2        0.645126156392596    0.772251164366149    0.864715281717755  0.0000
  O2     O2        0.850849424491345    0.759685652643769    0.860093247306390  0.0000
  O2     O2        0.640382566838783    0.283901488241781    0.872060314665038  0.0000
  O2     O2        0.130758917607755    0.684050039864960    0.126839107774704  0.0000
  O3     O3        0.375293416422764    0.352221360776659    0.124208456221260  0.0000
  O2     O2        0.628532500115085    0.535456205858267    0.049850018153543  0.0000
  O2     O2        0.860855319206237    0.520728652664198    0.047673735334485  0.0000
  O3     O3        0.349020107633323    0.579507232277986    0.912264565600429  0.0000
  O3     O3        0.144218265948398    0.519670493336439    0.907832919375549  0.0000
  O2     O2        0.740212468758983    0.305137343948485    0.065313341826408  0.0000
  O2     O2        0.749413631976953    0.753673780921378    0.052595540255831  0.0000
  O1     O1        0.258965585454064    0.271396090498441    0.943815142518249  0.0000
  O2     O2        0.233189006002967    0.795133206934830    0.956586689130185  0.0000
