data_c01204.vasp
_audit_creation_method             Generated by GULP
_audit_author_name                 Salvador R. G. Balestra
_symmetry_space_group_name_H-M     'P 1             '
_symmetry_Int_Tables_number        1

loop_
_symmetry_equiv_pos_site_id
_symmetry_equiv_pos_as_xyz
_cell_length_a                       17.2236
_cell_length_b                        7.6121
_cell_length_c                       10.1929
_cell_angle_alpha                   90.6106
_cell_angle_beta                    89.6479
_cell_angle_gamma                   89.5836

loop_
_atom_site_label
_atom_site_type_symbol
_atom_site_fract_x
_atom_site_fract_y
_atom_site_fract_z
_atom_site_charge
  Ge     Ge        0.160189999999943    0.293909999999983    0.273440000000051  0.0000
  Ge     Ge        0.327074543276863    0.750337458766690    0.278941126426098  0.0000
  Ge     Ge        0.647074531967102    0.355412500213098    0.028210517688059  0.0000
  Ge     Ge        0.162492012110429    0.302622297585704    0.954912662299933  0.0000
  Si     Si        0.040757201806170    0.012240320603833    0.354245746345248  0.0000
  Si     Si        0.447636831317461    0.032084031790100    0.358840180601313  0.0000
  Si     Si        0.941986866435096    0.005965963602557    0.613386942866157  0.0000
  Si     Si        0.547127078986616    0.028455400624060    0.615946373858453  0.0000
  Si     Si        0.548871181636028    0.040887855544247    0.105431794515518  0.0000
  Si     Si        0.942045079808858    0.042978378262581    0.095957775638518  0.0000
  Si     Si        0.439716372605408    0.036690841040778    0.862921282976431  0.0000
  Si     Si        0.052081086881415    0.016832975910617    0.855730691530798  0.0000
  Si     Si        0.829792726593724    0.307575304590780    0.716958985513878  0.0000
  Si     Si        0.658733105213625    0.733840632850607    0.709126877990838  0.0000
  Si     Si        0.837078828092382    0.710226283801408    0.703585171442453  0.0000
  Si     Si        0.652196540266823    0.327947172615203    0.715901474803012  0.0000
  Si     Si        0.147474496962465    0.702173462341998    0.278676698024217  0.0000
  Si     Si        0.342565819440255    0.337119163189951    0.272389663457067  0.0000
  Si     Si        0.842777663735450    0.728391806712278    0.008769579656702  0.0000
  Si     Si        0.345410681106206    0.350998141362153    0.965205342129275  0.0000
  Si     Si        0.149870370215907    0.705176013101137    0.965938886540676  0.0000
  Si     Si        0.327803337462537    0.754521024393897    0.965908180012016  0.0000
  Si     Si        0.663222807658001    0.759384914682046    0.015508108558782  0.0000
  Si     Si        0.828850329869143    0.332195929286131    0.025254700286154  0.0000
  O3     O3        0.106971445580557    0.156145131367300    0.371535669727813  0.0000
  O3     O3        0.383704515239984    0.882853895462267    0.375693856173347  0.0000
  O2     O2        0.885910226494742    0.171998389028844    0.641757259887181  0.0000
  O2     O2        0.604257925000131    0.859894741927661    0.624125620149384  0.0000
  O2     O2        0.892777217780506    0.826840998532793    0.613959497623724  0.0000
  O2     O2        0.595339669612003    0.207182529391343    0.630941130875790  0.0000
  O2     O2        0.080103280125156    0.819378734958685    0.346390684456488  0.0000
  O2     O2        0.404896915322031    0.221035714945723    0.351029998051266  0.0000
  O2     O2        0.978324248484104    0.024084462816787    0.470200098216385  0.0000
  O2     O2        0.509302022677487    0.031086623831502    0.474177140760290  0.0000
  O2     O2        0.997322887433856    0.051753003955813    0.219267625631435  0.0000
  O2     O2        0.494851322476590    0.989492979037484    0.225788042813951  0.0000
  O2     O2        0.011977341609589    0.994545797275163    0.715821275025213  0.0000
  O2     O2        0.477395385769467    0.016976410704387    0.720247663288502  0.0000
  O3     O3        0.580311112487114    0.237720037523093    0.116842275914414  0.0000
  O2     O2        0.899696874866760    0.854662306199502    0.088887185792120  0.0000
  O2     O2        0.406520616376438    0.234771839068613    0.880539566909080  0.0000
  O2     O2        0.087042220816726    0.830690941561887    0.900391282889121  0.0000
  O2     O2        0.372350728343173    0.891554291184104    0.874115828944113  0.0000
  O3     O3        0.118334215814042    0.160683639533689    0.846573274560926  0.0000
  O2     O2        0.625039810978136    0.915516159862077    0.100479520398385  0.0000
  O2     O2        0.879032444038335    0.198775774993872    0.111092184060064  0.0000
  O2     O2        0.503856286763337    0.000565527056061    0.971628464035959  0.0000
  O2     O2        0.990256999071838    0.082891584490685    0.964605111159408  0.0000
  O3     O3        0.145046351686314    0.506436247726242    0.331242720231336  0.0000
  O3     O3        0.342703940918771    0.534997076131616    0.324081378019606  0.0000
  O2     O2        0.857459560215954    0.504680870041345    0.683406463592183  0.0000
  O2     O2        0.631937126924639    0.532586402539915    0.690761455807147  0.0000
  O3     O3        0.258554255077449    0.250322852594307    0.286994636498743  0.0000
  O3     O3        0.229628726573347    0.793573518216073    0.305240720328557  0.0000
  O2     O2        0.740841753916923    0.284725947788376    0.671398720928824  0.0000
  O2     O2        0.748276008074779    0.749384773985822    0.663258296222091  0.0000
  O1     O1        0.134715501678812    0.262406509718272    0.112785944007207  0.0000
  O3     O3        0.348723460066250    0.788796020619973    0.116258219955423  0.0000
  O2     O2        0.831590409537852    0.274624506663961    0.872275558256732  0.0000
  O2     O2        0.652721974952184    0.792352652630856    0.860518815225985  0.0000
  O2     O2        0.851829822970515    0.766769475602327    0.854303223320724  0.0000
  O3     O3        0.639445895570345    0.285903899033067    0.867288865698647  0.0000
  O2     O2        0.135769066476633    0.686413911384694    0.121442964098918  0.0000
  O2     O2        0.366489695457341    0.336513739278111    0.118487069946176  0.0000
  O3     O3        0.624950337096957    0.574906199617564    0.049360613420593  0.0000
  O2     O2        0.865084383851632    0.527271404718357    0.040060702777644  0.0000
  O2     O2        0.350962093490900    0.554766982823018    0.923602084407217  0.0000
  O3     O3        0.141566161902069    0.514024733152666    0.904571880505369  0.0000
  O3     O3        0.741837055895606    0.327363300067091    0.077660686953077  0.0000
  O2     O2        0.753978490808189    0.760422189058476    0.051858261314362  0.0000
  O3     O3        0.261342730822403    0.274012739632504    0.941383440802360  0.0000
  O2     O2        0.235899510774010    0.783682373507436    0.943770639235700  0.0000
