data_c01277.vasp
_audit_creation_method             Generated by GULP
_audit_author_name                 Salvador R. G. Balestra
_symmetry_space_group_name_H-M     'P 1             '
_symmetry_Int_Tables_number        1

loop_
_symmetry_equiv_pos_site_id
_symmetry_equiv_pos_as_xyz
_cell_length_a                       17.0911
_cell_length_b                        7.6066
_cell_length_c                       10.2982
_cell_angle_alpha                   91.5915
_cell_angle_beta                    89.6434
_cell_angle_gamma                   89.9629

loop_
_atom_site_label
_atom_site_type_symbol
_atom_site_fract_x
_atom_site_fract_y
_atom_site_fract_z
_atom_site_charge
  Ge     Ge        0.160189999999943    0.293909999999983    0.273440000000051  0.0000
  Ge     Ge        0.658113944786186    0.636821512956201    0.689590473076840  0.0000
  Ge     Ge        0.838506238657476    0.686589725242354    0.002027522619178  0.0000
  Ge     Ge        0.356897193072463    0.633118995688164    0.946935774540522  0.0000
  Si     Si        0.057059418499022    0.988431473338587    0.351070415692917  0.0000
  Si     Si        0.459732123248441    0.974721003741469    0.348324037091939  0.0000
  Si     Si        0.958769096749250    0.956258921621067    0.607732620673441  0.0000
  Si     Si        0.554545480427032    0.947776113433156    0.608536934542025  0.0000
  Si     Si        0.564133136726566    0.963204285479146    0.097285704226924  0.0000
  Si     Si        0.949411461278815    0.974866359347733    0.100966724872384  0.0000
  Si     Si        0.451512309537749    0.949597598958635    0.860459514079359  0.0000
  Si     Si        0.060634439040000    0.952308332012632    0.860912909561767  0.0000
  Si     Si        0.355855317500009    0.667102526178235    0.254398516397609  0.0000
  Si     Si        0.854875546767724    0.265504947215232    0.698458749480684  0.0000
  Si     Si        0.840461782911385    0.672356137529026    0.692116084233530  0.0000
  Si     Si        0.674957184754964    0.227593130959042    0.696681918154164  0.0000
  Si     Si        0.175840107108711    0.701534264719279    0.254870903603817  0.0000
  Si     Si        0.343188754759681    0.262401163994195    0.265223895481203  0.0000
  Si     Si        0.675632377300625    0.246396942229699    0.999802103902217  0.0000
  Si     Si        0.336818250545593    0.229918221678968    0.960809752464417  0.0000
  Si     Si        0.173781830377594    0.666473294030118    0.950191000014213  0.0000
  Si     Si        0.156389346097495    0.268263455181870    0.965412925123727  0.0000
  Si     Si        0.656406592777614    0.643500999538248    0.001116030932384  0.0000
  Si     Si        0.856783683646718    0.283874117784980    0.999205993655524  0.0000
  O3     O3        0.094642206695573    0.179757346869361    0.366970145279722  0.0000
  O2     O2        0.413340034403460    0.790417924799451    0.339701893448962  0.0000
  O2     O2        0.913850248578727    0.143605020028619    0.613785027432304  0.0000
  O3     O3        0.588326077972420    0.751755083151005    0.606902773603396  0.0000
  O2     O2        0.897096931768942    0.796812440724890    0.610208947209189  0.0000
  O2     O2        0.630240351983895    0.074894098988633    0.616941793377856  0.0000
  O2     O2        0.130068612520426    0.855434301341858    0.331800734525208  0.0000
  O2     O2        0.399444964012128    0.137171130785259    0.345361537806785  0.0000
  O2     O2        0.005794518561135    0.938214740231737    0.473960188597746  0.0000
  O2     O2        0.505418672165003    0.986394161119555    0.482133339023613  0.0000
  O2     O2        0.002079190509062    0.974289991891756    0.226387209543728  0.0000
  O2     O2        0.523585642516127    0.990884107613113    0.235426208735570  0.0000
  O2     O2        0.021045725697128    0.942061254598721    0.721788865016526  0.0000
  O2     O2        0.497400195840140    0.990398565666899    0.729722861895203  0.0000
  O2     O2        0.634908870734795    0.102998845671338    0.088914295104091  0.0000
  O3     O3        0.880619515055713    0.834587107717522    0.108287675023085  0.0000
  O2     O2        0.373958913206845    0.070394371093240    0.876028253803320  0.0000
  O2     O2        0.125247848732680    0.798894960497932    0.863500768233882  0.0000
  O3     O3        0.423472983779252    0.748881436664775    0.856688991909571  0.0000
  O2     O2        0.099389286821097    0.144255626021581    0.880029398256548  0.0000
  O2     O2        0.595224198613916    0.763195601261442    0.084361764100467  0.0000
  O2     O2        0.912813115076443    0.168612903604195    0.087350916915237  0.0000
  O2     O2        0.504332436632181    0.002907017653564    0.983230072211434  0.0000
  O2     O2        0.997503108472719    0.913516987912257    0.972252200047085  0.0000
  O3     O3        0.139609864517678    0.515026647730704    0.288763856088198  0.0000
  O2     O2        0.375105998752177    0.462478294116234    0.277028342015822  0.0000
  O2     O2        0.872387149913003    0.471304862337054    0.679826650340303  0.0000
  O3     O3        0.638959885992780    0.415451952777758    0.667226350251123  0.0000
  O3     O3        0.255580446331139    0.255976750989079    0.319505848179588  0.0000
  O2     O2        0.266469402517723    0.706624638115710    0.297911151771622  0.0000
  O2     O2        0.766235934402197    0.223997406134210    0.654655711872584  0.0000
  O3     O3        0.752792339202984    0.678564296653879    0.638947739835383  0.0000
  O3     O3        0.145415522282506    0.222666467788749    0.114592451991868  0.0000
  O3     O3        0.368206622418333    0.709953634615092    0.104906205937340  0.0000
  O2     O2        0.866475770776288    0.219206924159469    0.848979743509327  0.0000
  O3     O3        0.649417021208381    0.695316718125539    0.851876799655263  0.0000
  O3     O3        0.840709340845929    0.740813979800895    0.840955038566094  0.0000
  O2     O2        0.669227068740534    0.186723062472054    0.849344290951417  0.0000
  O2     O2        0.172881898720588    0.731928460267486    0.100578616788840  0.0000
  O2     O2        0.342171125777376    0.197392455983275    0.114751968056766  0.0000
  O2     O2        0.634839631375815    0.437492579404292    0.018939423918589  0.0000
  O3     O3        0.881821141463657    0.483223298210818    0.018382712322025  0.0000
  O3     O3        0.378471765750074    0.412324280436552    0.929890177867268  0.0000
  O2     O2        0.135240714478023    0.471793859063811    0.940784590457526  0.0000
  O2     O2        0.766187133459545    0.259327539978799    0.040968211020264  0.0000
  O3     O3        0.742610644283874    0.676942880794674    0.052406970456793  0.0000
  O2     O2        0.246054841855320    0.237401963622601    0.921631714383378  0.0000
  O3     O3        0.261667853955877    0.662421633806265    0.898104099261091  0.0000
