data_c01254.vasp
_audit_creation_method             Generated by GULP
_audit_author_name                 Salvador R. G. Balestra
_symmetry_space_group_name_H-M     'P 1             '
_symmetry_Int_Tables_number        1

loop_
_symmetry_equiv_pos_site_id
_symmetry_equiv_pos_as_xyz
_cell_length_a                       17.2046
_cell_length_b                        7.6508
_cell_length_c                       10.2091
_cell_angle_alpha                   91.3274
_cell_angle_beta                    89.9739
_cell_angle_gamma                   89.7755

loop_
_atom_site_label
_atom_site_type_symbol
_atom_site_fract_x
_atom_site_fract_y
_atom_site_fract_z
_atom_site_charge
  Ge     Ge        0.160189999999943    0.293909999999983    0.273440000000051  0.0000
  Ge     Ge        0.657875751144454    0.683648445871738    0.697090123101264  0.0000
  Ge     Ge        0.845628891771709    0.656555524938176    0.699291611751043  0.0000
  Ge     Ge        0.342713608029518    0.314759420850838    0.955543215779617  0.0000
  Si     Si        0.044461784209678    0.003992283597591    0.356351665580499  0.0000
  Si     Si        0.446434455271073    0.009227021189938    0.363073346550509  0.0000
  Si     Si        0.948302274346726    0.963060944775188    0.613932207440770  0.0000
  Si     Si        0.543996083929070    0.974803828368835    0.620677412311147  0.0000
  Si     Si        0.554115689396792    0.000927009080341    0.117729685363051  0.0000
  Si     Si        0.938685068234855    0.993897776154848    0.102361125710894  0.0000
  Si     Si        0.442087790809630    0.998318300187859    0.874457793936518  0.0000
  Si     Si        0.052425863483623    0.992039211404173    0.862915436065029  0.0000
  Si     Si        0.333014268193896    0.715466298532153    0.269439252988934  0.0000
  Si     Si        0.832285201603745    0.251643916786157    0.716985171731886  0.0000
  Si     Si        0.651740366240004    0.276830144307501    0.714758505774570  0.0000
  Si     Si        0.153420837870225    0.703239601487237    0.274056419018077  0.0000
  Si     Si        0.341648337324785    0.311123904660527    0.270085601175264  0.0000
  Si     Si        0.650960655300198    0.306457490861458    0.019537803831718  0.0000
  Si     Si        0.841285991468106    0.681185824080783    0.012924952742798  0.0000
  Si     Si        0.150997027760454    0.688040271835750    0.969492917572912  0.0000
  Si     Si        0.330374539202134    0.716233104103293    0.963384054083142  0.0000
  Si     Si        0.161023045625268    0.287689762695160    0.960691873056027  0.0000
  Si     Si        0.661017024611686    0.706654211015191    0.009249222928464  0.0000
  Si     Si        0.829667630091540    0.284739243150355    0.023932060764537  0.0000
  O3     O3        0.099558250929450    0.170620082649101    0.366420486260599  0.0000
  O2     O2        0.385607368039476    0.849983247345321    0.351902644510578  0.0000
  O2     O2        0.875869231407062    0.092819077623220    0.643646533443990  0.0000
  O3     O3        0.598145835197531    0.806921511968063    0.599951799423928  0.0000
  O3     O3        0.914143389703930    0.769830777702797    0.612879387176317  0.0000
  O2     O2        0.599784770920671    0.142335909352899    0.632228598267710  0.0000
  O2     O2        0.099551079478773    0.832853131243430    0.360041972033635  0.0000
  O2     O2        0.403194885342165    0.194596420695526    0.348912232474081  0.0000
  O2     O2        0.983206578250311    0.004501378815792    0.473268138538974  0.0000
  O2     O2        0.482987538294171    0.003827276584711    0.506207686353572  0.0000
  O2     O2        0.996754643921915    0.008339976433052    0.222136989371036  0.0000
  O2     O2        0.516201059318339    0.987609511644568    0.259747892248609  0.0000
  O2     O2        0.016895835047179    0.989357195424000    0.718710691158928  0.0000
  O2     O2        0.495984404704246    0.946470232875486    0.753424518222650  0.0000
  O2     O2        0.594835553246691    0.190589666514926    0.107937334833119  0.0000
  O2     O2        0.894880481338893    0.807784234964797    0.102653368640500  0.0000
  O3     O3        0.407617783111862    0.191487560443905    0.864190342375274  0.0000
  O2     O2        0.096390933472593    0.807982277841069    0.882054198372308  0.0000
  O2     O2        0.369355571418009    0.865633637365170    0.878730060247861  0.0000
  O2     O2        0.110194266539207    0.155907527287276    0.871799671286361  0.0000
  O2     O2        0.616293204401957    0.844461344129569    0.102972872868409  0.0000
  O2     O2        0.876617949577038    0.152612298672195    0.114615130695406  0.0000
  O2     O2        0.488435293702617    0.977388884747176    0.009009404824562  0.0000
  O2     O2        0.984566330259352    0.017517171268693    0.967996976259771  0.0000
  O3     O3        0.129532198357069    0.506852415406627    0.297779213389326  0.0000
  O2     O2        0.361754340137199    0.517151019184810    0.290667751465604  0.0000
  O3     O3        0.867181101614364    0.436341027012574    0.679764065406891  0.0000
  O3     O3        0.626302298524974    0.470543179223258    0.683104837812159  0.0000
  O3     O3        0.255754171692382    0.276005714196270    0.322770275887369  0.0000
  O2     O2        0.243416596233142    0.734293274605260    0.314758201293745  0.0000
  O2     O2        0.741782234741358    0.247653120378113    0.675333482281330  0.0000
  O1     O1        0.752731167672483    0.696197154072244    0.648612049606108  0.0000
  O3     O3        0.157322497405973    0.230168705217749    0.110484588640395  0.0000
  O2     O2        0.339073681928382    0.762416404998509    0.117404328780380  0.0000
  O2     O2        0.837993009757733    0.225696378875736    0.872734149250546  0.0000
  O3     O3        0.651593792318117    0.755160906150996    0.859072493702774  0.0000
  O3     O3        0.854955695498131    0.720006745790599    0.862152811313199  0.0000
  O2     O2        0.640622533970448    0.241897567338868    0.869335402087518  0.0000
  O2     O2        0.142259828023045    0.747886035579023    0.120951899164390  0.0000
  O3     O3        0.348041460823670    0.259207645527828    0.117738261107789  0.0000
  O2     O2        0.628044638728028    0.511026425896025    0.033099262325688  0.0000
  O2     O2        0.863193061921023    0.480453753260553    0.044179292949432  0.0000
  O3     O3        0.368503770897083    0.529459227758526    0.932931395726916  0.0000
  O2     O2        0.126644596449878    0.485528692559726    0.951335157578780  0.0000
  O2     O2        0.739517032405094    0.279443969557756    0.065779213417224  0.0000
  O2     O2        0.751351954271009    0.714375780600987    0.048569257072907  0.0000
  O3     O3        0.247958264378985    0.282701282042475    0.906612513093241  0.0000
  O2     O2        0.239787474325779    0.709562186337689    0.924211763772052  0.0000
