data_c01278.vasp
_audit_creation_method             Generated by GULP
_audit_author_name                 Salvador R. G. Balestra
_symmetry_space_group_name_H-M     'P 1             '
_symmetry_Int_Tables_number        1

loop_
_symmetry_equiv_pos_site_id
_symmetry_equiv_pos_as_xyz
_cell_length_a                       17.1257
_cell_length_b                        7.6343
_cell_length_c                       10.2369
_cell_angle_alpha                   90.4950
_cell_angle_beta                    90.2914
_cell_angle_gamma                   89.8946

loop_
_atom_site_label
_atom_site_type_symbol
_atom_site_fract_x
_atom_site_fract_y
_atom_site_fract_z
_atom_site_charge
  Ge     Ge        0.160189999999943    0.293909999999983    0.273440000000051  0.0000
  Ge     Ge        0.655722310478423    0.644003405565194    0.691463264861896  0.0000
  Ge     Ge        0.838444078258501    0.685200328262891    0.005575707394787  0.0000
  Ge     Ge        0.152933791046030    0.298605474626060    0.954577608167792  0.0000
  Si     Si        0.056100649802215    0.989346450401582    0.354247474268718  0.0000
  Si     Si        0.458447658301461    0.977402490684857    0.352641967207218  0.0000
  Si     Si        0.953387611085994    0.961355909136876    0.606035664281860  0.0000
  Si     Si        0.550776133871927    0.956212583482810    0.616507978388030  0.0000
  Si     Si        0.564168518474356    0.965745329055066    0.107327609493603  0.0000
  Si     Si        0.950166974800715    0.974242524282763    0.100274909483998  0.0000
  Si     Si        0.447920156315062    0.978841765385011    0.872110965490123  0.0000
  Si     Si        0.057114555458709    0.981253856762689    0.855992418074055  0.0000
  Si     Si        0.352744577483360    0.673531337968510    0.262669974242548  0.0000
  Si     Si        0.850482711927582    0.268586162932979    0.702496949482674  0.0000
  Si     Si        0.837622420949864    0.674392123005102    0.693582055875390  0.0000
  Si     Si        0.670260772117256    0.236230356756574    0.701018375394795  0.0000
  Si     Si        0.172380830321559    0.704414972839034    0.267400420912548  0.0000
  Si     Si        0.341297008663767    0.271742129194493    0.261219366806130  0.0000
  Si     Si        0.672787288061330    0.252851743045353    0.005809412722598  0.0000
  Si     Si        0.334718474663582    0.272845592241019    0.952064137426907  0.0000
  Si     Si        0.170331564482571    0.703853199674284    0.961420944862032  0.0000
  Si     Si        0.351000045102961    0.667429832588706    0.959257361078601  0.0000
  Si     Si        0.656716180336401    0.649802283649953    0.005156274269658  0.0000
  Si     Si        0.854055082101993    0.283213179063567    0.004657079965792  0.0000
  O3     O3        0.096428100715158    0.176360768732960    0.369010699717529  0.0000
  O2     O2        0.410745837077497    0.795527669613249    0.346157779933005  0.0000
  O2     O2        0.907881291110239    0.146568972858426    0.617981483472708  0.0000
  O3     O3        0.586237855587015    0.762789722029035    0.608263720005291  0.0000
  O2     O2        0.893604528821883    0.799591561934068    0.610512829915543  0.0000
  O2     O2        0.625093948140216    0.086723945890989    0.620330931894653  0.0000
  O2     O2        0.125935605684380    0.846272215072225    0.353472059931594  0.0000
  O2     O2        0.401255566093464    0.140212338356369    0.328577158098036  0.0000
  O2     O2        0.995273019351097    0.952663088606248    0.467645786614928  0.0000
  O2     O2        0.495275613911805    0.997762126269204    0.495201516088382  0.0000
  O2     O2        0.009694919878347    0.974001159223619    0.218602710676379  0.0000
  O2     O2        0.529181788836915    0.978125967324840    0.251072533722505  0.0000
  O2     O2        0.019935551851886    0.942096450519939    0.715484226082314  0.0000
  O2     O2        0.500208004800065    0.988897155936613    0.745314159742297  0.0000
  O2     O2        0.632616061216411    0.109948737062125    0.097139063035664  0.0000
  O3     O3        0.885362558119833    0.826044086280371    0.110524512223605  0.0000
  O2     O2        0.384008042902148    0.132734392797678    0.869655670986823  0.0000
  O2     O2        0.132665856611936    0.857008692754669    0.875630220260466  0.0000
  O2     O2        0.405988590688434    0.789508281222769    0.872619576170049  0.0000
  O3     O3        0.085383818136337    0.180090541843291    0.865053182949586  0.0000
  O2     O2        0.596397588831583    0.769565206889595    0.086458849119563  0.0000
  O2     O2        0.908479861659327    0.163782034248100    0.095211510999567  0.0000
  O2     O2        0.498645437837629    0.011528941741178    0.001405139673657  0.0000
  O2     O2        0.994526472253925    0.930460292077620    0.965500442962465  0.0000
  O3     O3        0.139757832713986    0.513470020550116    0.294883014126088  0.0000
  O2     O2        0.372386817517858    0.469769506512288    0.285989993742249  0.0000
  O2     O2        0.868823186758442    0.473548191631156    0.682117430046889  0.0000
  O3     O3        0.635238701835725    0.424670182383625    0.669475069846928  0.0000
  O3     O3        0.255811253863214    0.252951733793453    0.320239645244965  0.0000
  O2     O2        0.264009707846651    0.712549674923221    0.305758655619394  0.0000
  O2     O2        0.761325998797663    0.230137711218183    0.660510408263204  0.0000
  O3     O3        0.750016738730259    0.682961355911370    0.639424005121000  0.0000
  O1     O1        0.144828556885187    0.236528468298050    0.113619411783583  0.0000
  O2     O2        0.364290357441075    0.719653497390710    0.110623160482872  0.0000
  O2     O2        0.863801548588983    0.220564113563985    0.854109381952021  0.0000
  O3     O3        0.650422664915937    0.700911860414104    0.854287448112274  0.0000
  O3     O3        0.839258852167683    0.740082774921202    0.842967897859455  0.0000
  O2     O2        0.663809655798735    0.195127157189284    0.855082450818367  0.0000
  O2     O2        0.163172311897500    0.750719707500485    0.114751553689730  0.0000
  O2     O2        0.332770506433184    0.231125782706543    0.106571843175122  0.0000
  O2     O2        0.634340877423844    0.444856211928739    0.025019295558873  0.0000
  O3     O3        0.880456773837051    0.480598614212255    0.023025324209461  0.0000
  O2     O2        0.373020221491265    0.465065117840237    0.932099521668411  0.0000
  O3     O3        0.130301094369651    0.518254425410064    0.935691002184507  0.0000
  O2     O2        0.763695599802465    0.262115517543647    0.045279493775301  0.0000
  O3     O3        0.743187185346582    0.681751099988752    0.057609327859018  0.0000
  O3     O3        0.247191205772358    0.267647953316828    0.899592041840052  0.0000
  O2     O2        0.260931045749689    0.695177748546894    0.920923664807420  0.0000
