data_c01223.vasp
_audit_creation_method             Generated by GULP
_audit_author_name                 Salvador R. G. Balestra
_symmetry_space_group_name_H-M     'P 1             '
_symmetry_Int_Tables_number        1

loop_
_symmetry_equiv_pos_site_id
_symmetry_equiv_pos_as_xyz
_cell_length_a                       17.1627
_cell_length_b                        7.6228
_cell_length_c                       10.2582
_cell_angle_alpha                   89.9378
_cell_angle_beta                    91.1296
_cell_angle_gamma                   89.7600

loop_
_atom_site_label
_atom_site_type_symbol
_atom_site_fract_x
_atom_site_fract_y
_atom_site_fract_z
_atom_site_charge
  Ge     Ge        0.160189999999943    0.293909999999983    0.273440000000051  0.0000
  Ge     Ge        0.852436563475728    0.285745430652071    0.700145293890936  0.0000
  Ge     Ge        0.835516882570756    0.705123201729198    0.703704590862259  0.0000
  Ge     Ge        0.151038620105465    0.300798866462143    0.954812891706779  0.0000
  Si     Si        0.057210660427391    0.988555506039191    0.364595308969088  0.0000
  Si     Si        0.459672099738184    0.973661970800338    0.352851048845954  0.0000
  Si     Si        0.955553621641950    0.979878487927624    0.612931623836825  0.0000
  Si     Si        0.548892424740735    0.971001677040375    0.624165377530751  0.0000
  Si     Si        0.565224109535561    0.967783597660857    0.109805466502094  0.0000
  Si     Si        0.947680994854422    0.976388494316206    0.116053281551437  0.0000
  Si     Si        0.445654872460066    0.978267867546244    0.874403688688913  0.0000
  Si     Si        0.053878500766966    0.984311979501181    0.871694106944064  0.0000
  Si     Si        0.353108635062073    0.671391435511983    0.262453679390237  0.0000
  Si     Si        0.653454614519516    0.660729122622656    0.704953273656135  0.0000
  Si     Si        0.668245482948294    0.256950460177997    0.703153934912724  0.0000
  Si     Si        0.173935210766593    0.705228953256155    0.265858436133825  0.0000
  Si     Si        0.340565525530612    0.268922286583349    0.263817125020015  0.0000
  Si     Si        0.673343466000759    0.257694323970030    0.008980162575278  0.0000
  Si     Si        0.838278249399066    0.690431799539941    0.012575681149968  0.0000
  Si     Si        0.332132901808192    0.271384253246151    0.955332995223587  0.0000
  Si     Si        0.169962376341130    0.704731718566795    0.959685691528774  0.0000
  Si     Si        0.349610583677563    0.665941355627807    0.958969717211197  0.0000
  Si     Si        0.659530402465913    0.654059513536912    0.011090888388955  0.0000
  Si     Si        0.852916573015604    0.286152530946801    0.008206278361171  0.0000
  O3     O3        0.094622610163081    0.179299407729745    0.365721199745822  0.0000
  O2     O2        0.413102862670962    0.790991291219941    0.343582020359801  0.0000
  O3     O3        0.919472096092490    0.173455207388814    0.609303802784059  0.0000
  O2     O2        0.588953214415609    0.779177333676083    0.630273907866139  0.0000
  O3     O3        0.882487192164617    0.850347608354086    0.605349231334200  0.0000
  O2     O2        0.614686786680919    0.121142312811122    0.623562367105942  0.0000
  O2     O2        0.127878209514787    0.851566887088195    0.345549445243151  0.0000
  O2     O2        0.401346735965461    0.135987500520681    0.329911455507973  0.0000
  O2     O2        0.017506676978844    0.949468087966220    0.501291028682919  0.0000
  O2     O2        0.496482148953298    0.988549181493301    0.495575157050702  0.0000
  O2     O2        0.989985267905625    0.966164717578486    0.255185987310651  0.0000
  O2     O2        0.529640778029919    0.979917670183398    0.251790518648160  0.0000
  O2     O2        0.999292414713394    0.935714066854815    0.749864396353638  0.0000
  O2     O2        0.493634430077044    0.001074048111731    0.745324383613501  0.0000
  O2     O2        0.631040354050798    0.116135413630062    0.097589940044714  0.0000
  O2     O2        0.884234852357547    0.820646004536111    0.110014549556664  0.0000
  O2     O2        0.380530589708568    0.129148736247763    0.876537117860517  0.0000
  O2     O2        0.130078762707258    0.858645405453852    0.875052577016263  0.0000
  O2     O2        0.405203066983256    0.787348838378831    0.873621896164377  0.0000
  O3     O3        0.083542772743521    0.182399400498681    0.864144764531322  0.0000
  O2     O2        0.602462888031896    0.774826885543763    0.094088750876240  0.0000
  O2     O2        0.908477711300141    0.169276528521257    0.102529166703080  0.0000
  O2     O2        0.499444156587936    0.004645878513019    0.001418698006787  0.0000
  O2     O2        0.008956796203073    0.943887934596964    0.003679044274586  0.0000
  O3     O3        0.141341791510133    0.514668792529448    0.295532282070342  0.0000
  O2     O2        0.371798455651594    0.466800209234097    0.287604007276360  0.0000
  O1     O1        0.872565662818154    0.500780358459104    0.678943884351302  0.0000
  O2     O2        0.637189359835180    0.455139512401797    0.678538764118207  0.0000
  O3     O3        0.255510953111422    0.249954680254874    0.322282728541186  0.0000
  O2     O2        0.265383344053463    0.713824721623060    0.306717779859001  0.0000
  O3     O3        0.756381257395417    0.241091847501303    0.657258260979472  0.0000
  O3     O3        0.738331595588090    0.707758792784975    0.656631012204455  0.0000
  O1     O1        0.143221080342076    0.238581262167113    0.114031120406146  0.0000
  O2     O2        0.362629313988761    0.717081882668558    0.110179032359551  0.0000
  O3     O3        0.865973587648006    0.224073448797072    0.861850426892835  0.0000
  O2     O2        0.649437598060135    0.702048513293910    0.859114771720976  0.0000
  O3     O3        0.843469579627122    0.761257218446673    0.866639804752786  0.0000
  O2     O2        0.665035794763939    0.209713188867342    0.856695388198997  0.0000
  O2     O2        0.165552902204746    0.748149278752509    0.112809296119613  0.0000
  O2     O2        0.329999917957134    0.230300847797859    0.109676890013110  0.0000
  O2     O2        0.637507098086633    0.450915371942097    0.035205750294748  0.0000
  O2     O2        0.873955773645610    0.492722689339737    0.021084298917642  0.0000
  O2     O2        0.370971000021430    0.462863504946370    0.934084503335132  0.0000
  O3     O3        0.128870363265064    0.520408707014984    0.933584389519973  0.0000
  O2     O2        0.764079163589554    0.256330530590551    0.049597585550139  0.0000
  O2     O2        0.748564967377997    0.687024468100519    0.056049811482309  0.0000
  O3     O3        0.244701357531533    0.268106441691073    0.901311557785500  0.0000
  O2     O2        0.259775599063912    0.696137036287304    0.917564817371952  0.0000
