data_c01231.vasp
_audit_creation_method             Generated by GULP
_audit_author_name                 Salvador R. G. Balestra
_symmetry_space_group_name_H-M     'P 1             '
_symmetry_Int_Tables_number        1

loop_
_symmetry_equiv_pos_site_id
_symmetry_equiv_pos_as_xyz
_cell_length_a                       17.1651
_cell_length_b                        7.6219
_cell_length_c                       10.2618
_cell_angle_alpha                   89.8073
_cell_angle_beta                    89.2989
_cell_angle_gamma                   89.5304

loop_
_atom_site_label
_atom_site_type_symbol
_atom_site_fract_x
_atom_site_fract_y
_atom_site_fract_z
_atom_site_charge
  Ge     Ge        0.160189999999943    0.293909999999983    0.273440000000051  0.0000
  Ge     Ge        0.858460241692891    0.298346282836327    0.689784964071449  0.0000
  Ge     Ge        0.670405435116772    0.277348520840817    0.692108203707143  0.0000
  Ge     Ge        0.359977407469839    0.642513800475445    0.949658863565856  0.0000
  Si     Si        0.055913748625347    0.985832277939720    0.353632793558508  0.0000
  Si     Si        0.457783536254371    0.968827007960492    0.358249348588113  0.0000
  Si     Si        0.963083158483943    0.986817581343343    0.614256280751790  0.0000
  Si     Si        0.554708468011841    0.989742964213937    0.615793000968493  0.0000
  Si     Si        0.566638581813197    0.972444337683132    0.112044515556242  0.0000
  Si     Si        0.950075103452809    0.972966847429158    0.105979890543215  0.0000
  Si     Si        0.455042293281602    0.961237127446057    0.871614740345429  0.0000
  Si     Si        0.066214985239895    0.972801849310692    0.867504248994783  0.0000
  Si     Si        0.354898173872027    0.666985579618803    0.259252575045106  0.0000
  Si     Si        0.663156238327211    0.687248562204557    0.709361028800911  0.0000
  Si     Si        0.844712072839098    0.707220364667780    0.708036485815210  0.0000
  Si     Si        0.176315942315835    0.702205517869737    0.254973930575761  0.0000
  Si     Si        0.342279879991546    0.262680346177268    0.272496000614533  0.0000
  Si     Si        0.673487087661325    0.261054847242532    0.002090282082489  0.0000
  Si     Si        0.842826212417922    0.683403819644461    0.011868950090797  0.0000
  Si     Si        0.340061728676111    0.241637167156379    0.966518653113940  0.0000
  Si     Si        0.178153376780640    0.679494102704387    0.948681295088211  0.0000
  Si     Si        0.160542084680233    0.283666458469727    0.963979516927301  0.0000
  Si     Si        0.663104837489306    0.662872016149791    0.011575855071978  0.0000
  Si     Si        0.854120953481836    0.283789256297132    0.000795192389210  0.0000
  O3     O3        0.092148522781776    0.177892802096994    0.362189597011529  0.0000
  O2     O2        0.411996455565956    0.787037727828277    0.342935326654189  0.0000
  O3     O3        0.927470404701817    0.180400594262380    0.602666669151572  0.0000
  O2     O2        0.610501751442615    0.819783745038435    0.627509744929353  0.0000
  O2     O2        0.889016208752317    0.858400532790913    0.629070489290394  0.0000
  O3     O3        0.609606273977320    0.155530977922889    0.596798276160122  0.0000
  O2     O2        0.128497702107738    0.855319704070217    0.326399632414089  0.0000
  O2     O2        0.398618513680667    0.133653872418987    0.351931895863700  0.0000
  O2     O2        0.013786137613310    0.935076641585886    0.488286318172950  0.0000
  O2     O2        0.495985526559328    0.964896975516231    0.498785923904236  0.0000
  O2     O2        0.991112813768313    0.969831495430758    0.243755531703396  0.0000
  O2     O2        0.526498062162817    0.989318050885925    0.252263923858687  0.0000
  O2     O2        0.018535141036350    0.964699226641658    0.736793143211169  0.0000
  O2     O2        0.503629538782382    0.019839958646109    0.746174039998901  0.0000
  O2     O2        0.629316703223833    0.127436090601475    0.097994327213444  0.0000
  O2     O2        0.887803596487319    0.815589049662680    0.104941026051453  0.0000
  O2     O2        0.377512602375192    0.081754088939131    0.886175136212691  0.0000
  O2     O2        0.130485102611391    0.818217147756148    0.862795001269361  0.0000
  O3     O3        0.426938576400959    0.762425347348408    0.860627574155034  0.0000
  O2     O2        0.106305408856839    0.162988958985250    0.875265108601212  0.0000
  O2     O2        0.607819174991279    0.781056120465292    0.103536915276069  0.0000
  O2     O2        0.908067076028100    0.161222958275768    0.090210282528376  0.0000
  O2     O2        0.503801352046141    0.996509184451550    0.000497959539493  0.0000
  O2     O2        0.011848942923597    0.937180054387430    0.991817983822862  0.0000
  O3     O3        0.140494503003152    0.515120634077570    0.289451135595036  0.0000
  O2     O2        0.373146741026155    0.461788696900375    0.286133602834050  0.0000
  O3     O3        0.878896064500770    0.518582522812837    0.672150185864524  0.0000
  O3     O3        0.639037408757702    0.491861923662178    0.678676620194029  0.0000
  O3     O3        0.254230587796988    0.252204352466398    0.324215442295195  0.0000
  O2     O2        0.265701129726825    0.708370414404387    0.302103091430538  0.0000
  O1     O1        0.765320606736565    0.259790768857068    0.641301020164455  0.0000
  O2     O2        0.753704418341204    0.714882447799001    0.670597720212584  0.0000
  O3     O3        0.147532252174365    0.231901639087871    0.113348265662091  0.0000
  O3     O3        0.368498315554752    0.711112625152631    0.108789465561553  0.0000
  O3     O3        0.867912648843117    0.236200206014590    0.851334739755208  0.0000
  O2     O2        0.650920998024162    0.726682539225675    0.863222137475823  0.0000
  O2     O2        0.852726600539589    0.743229724763987    0.862225588786280  0.0000
  O3     O3        0.664303850094447    0.207931802278727    0.852887587675044  0.0000
  O2     O2        0.177131808346601    0.735708579814111    0.099930515344506  0.0000
  O2     O2        0.342673684942896    0.206285720277013    0.121313828381654  0.0000
  O2     O2        0.639992920403180    0.458779286160095    0.024826433784702  0.0000
  O2     O2        0.876463441442096    0.486206217466416    0.028216025129521  0.0000
  O3     O3        0.382808327073363    0.422760270736509    0.934249730540163  0.0000
  O2     O2        0.138834008449566    0.487322916702628    0.937503670054277  0.0000
  O2     O2        0.764130207532716    0.254292989416969    0.039043754835799  0.0000
  O2     O2        0.752189095807667    0.688897893882362    0.053029622410137  0.0000
  O2     O2        0.250599348475891    0.255261129342195    0.923535631850456  0.0000
  O3     O3        0.265963267547760    0.674632064831026    0.896974808546740  0.0000
