data_c01291.vasp
_audit_creation_method             Generated by GULP
_audit_author_name                 Salvador R. G. Balestra
_symmetry_space_group_name_H-M     'P 1             '
_symmetry_Int_Tables_number        1

loop_
_symmetry_equiv_pos_site_id
_symmetry_equiv_pos_as_xyz
_cell_length_a                       17.1199
_cell_length_b                        7.6322
_cell_length_c                       10.2708
_cell_angle_alpha                   91.6582
_cell_angle_beta                    90.1673
_cell_angle_gamma                   89.0125

loop_
_atom_site_label
_atom_site_type_symbol
_atom_site_fract_x
_atom_site_fract_y
_atom_site_fract_z
_atom_site_charge
  Ge     Ge        0.160189999999943    0.293909999999983    0.273440000000051  0.0000
  Ge     Ge        0.842788191533882    0.670560251565920    0.698405883672038  0.0000
  Ge     Ge        0.641860062849062    0.343311156544076    0.021780641388126  0.0000
  Ge     Ge        0.827431136554235    0.296080753984297    0.026352387781412  0.0000
  Si     Si        0.046925574816440    0.006669074825307    0.360881000319373  0.0000
  Si     Si        0.451018094308801    0.000511064476662    0.350092192219349  0.0000
  Si     Si        0.945396147668115    0.972439135777229    0.613110563049197  0.0000
  Si     Si        0.544123905856166    0.996309246980565    0.616602901406315  0.0000
  Si     Si        0.551794557610251    0.022602926796144    0.101680574841800  0.0000
  Si     Si        0.939933429599437    0.005409025180167    0.108941368412367  0.0000
  Si     Si        0.436380390560351    0.990700924223026    0.864431735243524  0.0000
  Si     Si        0.048498467854085    0.001182571737508    0.865976513016636  0.0000
  Si     Si        0.336311309869883    0.710678648475871    0.263901589982136  0.0000
  Si     Si        0.826934163462909    0.259984484616946    0.717349232226533  0.0000
  Si     Si        0.660434680793307    0.703810075649862    0.694132045129114  0.0000
  Si     Si        0.647943209072026    0.303180605586832    0.710814702334377  0.0000
  Si     Si        0.155636688742645    0.704534795976484    0.275592445779404  0.0000
  Si     Si        0.343776436704177    0.306552574567825    0.263551014054499  0.0000
  Si     Si        0.845996709670406    0.694442164510867    0.004144657897055  0.0000
  Si     Si        0.336988938342542    0.305491841020128    0.958370163809400  0.0000
  Si     Si        0.148928925380801    0.693661005536268    0.971812748704108  0.0000
  Si     Si        0.329165221337019    0.704360851248929    0.960233665647788  0.0000
  Si     Si        0.156720073782064    0.290857147148875    0.963862906771743  0.0000
  Si     Si        0.664505003785621    0.738217133891187    0.999382639066226  0.0000
  O3     O3        0.101089695679901    0.174546808788842    0.370012346804911  0.0000
  O2     O2        0.389214404828004    0.843674876778789    0.346704402853171  0.0000
  O2     O2        0.874428540082576    0.111140591454956    0.635767951805896  0.0000
  O2     O2        0.604876049757871    0.832447764260630    0.612984392088920  0.0000
  O3     O3        0.909007553839308    0.781018621218629    0.606761727325372  0.0000
  O2     O2        0.589919841338362    0.178072108799818    0.629433223406429  0.0000
  O2     O2        0.103956447949702    0.836240057091383    0.365370488833492  0.0000
  O2     O2        0.406646699699138    0.187256444661329    0.337453968479517  0.0000
  O2     O2        0.985496904750194    0.009491654386749    0.476724099606001  0.0000
  O2     O2        0.496169200068866    0.997444667628343    0.484474322331471  0.0000
  O2     O2        0.000668205562439    0.003626186953435    0.225491104289014  0.0000
  O2     O2        0.514227645929400    0.969799073035397    0.236706541683545  0.0000
  O2     O2        0.011105182698741    0.992363892048582    0.724013767129729  0.0000
  O2     O2        0.482406120383164    0.973521012096632    0.730993389212870  0.0000
  O3     O3        0.573452475356068    0.225123206505805    0.104321436999437  0.0000
  O2     O2        0.895960095032535    0.820488223331162    0.099277151732965  0.0000
  O2     O2        0.391833448054107    0.178763261837580    0.870352676548837  0.0000
  O2     O2        0.090925356451755    0.814491786134278    0.889922087308566  0.0000
  O2     O2        0.374468486809759    0.834330935225793    0.868792112092752  0.0000
  O2     O2        0.109248540679139    0.160284577839149    0.868966901141389  0.0000
  O2     O2        0.631681749963761    0.908990237354710    0.077871249029340  0.0000
  O3     O3        0.877903192832011    0.161307567664420    0.129459444622158  0.0000
  O2     O2        0.494164256486844    0.969755912013361    0.984851178000415  0.0000
  O2     O2        0.982979173810493    0.044191879427642    0.973473506179527  0.0000
  O3     O3        0.132796849914056    0.509211556786812    0.303318067724487  0.0000
  O2     O2        0.363378955842420    0.511097372489599    0.289363164241688  0.0000
  O3     O3        0.863381464299664    0.448681530327907    0.694830915154233  0.0000
  O2     O2        0.627651440004373    0.506323732488515    0.682106027932885  0.0000
  O3     O3        0.257677917766769    0.266629360728432    0.312233273777871  0.0000
  O2     O2        0.246724453315285    0.736155370452520    0.308556580668286  0.0000
  O2     O2        0.737126773750002    0.262337450929498    0.666993228847902  0.0000
  O3     O3        0.748508819852038    0.706364295854992    0.643181652112899  0.0000
  O3     O3        0.146948840569959    0.234893997293840    0.111576375699307  0.0000
  O2     O2        0.343256690446658    0.754382380524498    0.111777265062267  0.0000
  O3     O3        0.826234788302939    0.213711414800187    0.867991075171978  0.0000
  O2     O2        0.661421893037855    0.769481138244369    0.844908121028201  0.0000
  O3     O3        0.855848246345404    0.750207682607839    0.856247777302096  0.0000
  O3     O3        0.637824486838462    0.267744518787471    0.861768740906028  0.0000
  O2     O2        0.140559909589376    0.745662901760157    0.123857778879208  0.0000
  O2     O2        0.349657792028969    0.261159889677764    0.109290657372729  0.0000
  O3     O3        0.617876750185741    0.564774510698947    0.031790877277832  0.0000
  O3     O3        0.872948312193176    0.496807947877970    0.025287192844763  0.0000
  O2     O2        0.359628396187650    0.505471486861005    0.931574685485101  0.0000
  O2     O2        0.125799612962014    0.490942647925222    0.948205102848005  0.0000
  O1     O1        0.733728309464196    0.311667273388064    0.081856402332447  0.0000
  O2     O2        0.754098337337370    0.706450403689854    0.041515817544443  0.0000
  O2     O2        0.247018922295841    0.276076164187808    0.921531324982455  0.0000
  O2     O2        0.237584813257830    0.721777180079350    0.926437647777720  0.0000
