data_c01259.vasp
_audit_creation_method             Generated by GULP
_audit_author_name                 Salvador R. G. Balestra
_symmetry_space_group_name_H-M     'P 1             '
_symmetry_Int_Tables_number        1

loop_
_symmetry_equiv_pos_site_id
_symmetry_equiv_pos_as_xyz
_cell_length_a                       17.1182
_cell_length_b                        7.6195
_cell_length_c                       10.2737
_cell_angle_alpha                   92.4446
_cell_angle_beta                    91.0600
_cell_angle_gamma                   90.3606

loop_
_atom_site_label
_atom_site_type_symbol
_atom_site_fract_x
_atom_site_fract_y
_atom_site_fract_z
_atom_site_charge
  Ge     Ge        0.160189999999943    0.293909999999983    0.273440000000051  0.0000
  Ge     Ge        0.651451615085614    0.629300506425547    0.694140943675964  0.0000
  Ge     Ge        0.839428798615219    0.668148550431190    0.691210004973069  0.0000
  Ge     Ge        0.857577037949579    0.301449343936546    0.017265650832100  0.0000
  Si     Si        0.056907299297100    0.989643517945197    0.363613914558297  0.0000
  Si     Si        0.460310593417678    0.983024998737277    0.354456558189289  0.0000
  Si     Si        0.956790236151157    0.952851238961031    0.614860293990054  0.0000
  Si     Si        0.550365536598871    0.939473679932551    0.618672982888381  0.0000
  Si     Si        0.565569037895943    0.976973860022576    0.105022053820424  0.0000
  Si     Si        0.951506511683321    0.989109626865858    0.113417705315588  0.0000
  Si     Si        0.447045221669520    0.956997246132518    0.867602028594558  0.0000
  Si     Si        0.060530627806031    0.957755866268377    0.871918063673752  0.0000
  Si     Si        0.353854033204066    0.672567412939204    0.266584308407447  0.0000
  Si     Si        0.852432704313926    0.258035753539530    0.710138233081410  0.0000
  Si     Si        0.672518566946522    0.224956390216504    0.717089036905508  0.0000
  Si     Si        0.173839706778586    0.703570719789497    0.265399385533057  0.0000
  Si     Si        0.343947163790237    0.269050635325825    0.271531108565157  0.0000
  Si     Si        0.676309400875153    0.268170899893893    0.023751899112923  0.0000
  Si     Si        0.840170431551654    0.705999721077283    0.998710488363236  0.0000
  Si     Si        0.337885688622987    0.250099913474706    0.965927758881218  0.0000
  Si     Si        0.172166348930604    0.674722695236036    0.960352382848810  0.0000
  Si     Si        0.352065723591299    0.647954790526494    0.962794871584467  0.0000
  Si     Si        0.157246970664121    0.275422319464315    0.963162139446379  0.0000
  Si     Si        0.658677811971477    0.660310995628854    0.004127828533997  0.0000
  O3     O3        0.093730616380776    0.182555421769282    0.362569259691823  0.0000
  O2     O2        0.412449618666148    0.799769138994815    0.349695634497722  0.0000
  O2     O2        0.906563767206400    0.130984179494205    0.622086277483140  0.0000
  O3     O3        0.581459668093586    0.742344969193036    0.608473300893016  0.0000
  O3     O3        0.897489532607417    0.791225939159113    0.594266592944316  0.0000
  O2     O2        0.627080816988837    0.059257827924063    0.650921669625954  0.0000
  O2     O2        0.128824979277026    0.855894831986497    0.343932219987126  0.0000
  O2     O2        0.400723747170752    0.145440713299305    0.351878922343573  0.0000
  O2     O2        0.017803557832247    0.959033913270235    0.500005492592825  0.0000
  O2     O2        0.510678260089697    0.998950944968692    0.486198617793844  0.0000
  O2     O2        0.990952859856711    0.955401385446775    0.252149952050678  0.0000
  O2     O2        0.519319623320691    0.991230668886842    0.237062608600452  0.0000
  O2     O2        0.006215299020176    0.926542905829190    0.746602314298785  0.0000
  O2     O2        0.485924493975780    0.966226609168778    0.728959561742770  0.0000
  O2     O2        0.628373086088203    0.134793868745660    0.108684139600492  0.0000
  O2     O2        0.876164369273505    0.861521634207597    0.092731831906904  0.0000
  O2     O2        0.380517200972789    0.104771312908658    0.876923868484142  0.0000
  O2     O2        0.126041730164374    0.806338960840674    0.869950643440226  0.0000
  O2     O2        0.409283931961208    0.763454136764169    0.878691457610498  0.0000
  O2     O2        0.101106303166634    0.150193988649954    0.871643271471434  0.0000
  O2     O2        0.608254954431423    0.789452505728442    0.096700767293534  0.0000
  O3     O3        0.924114873309646    0.189142196217335    0.109778991691632  0.0000
  O2     O2        0.509375010591007    0.000824177640618    0.981492730536041  0.0000
  O2     O2        0.011241216641881    0.936476721851884    0.000603094232917  0.0000
  O3     O3        0.141567788311245    0.514601183462800    0.298560924249130  0.0000
  O2     O2        0.372128325019640    0.471034568974869    0.295910499276070  0.0000
  O3     O3        0.875117309953637    0.456983812475083    0.687777830922828  0.0000
  O3     O3        0.632300760393065    0.405746338656147    0.681814751581206  0.0000
  O3     O3        0.255750492975831    0.249937102005235    0.316818473016267  0.0000
  O2     O2        0.265360102419024    0.716703504951626    0.305885907892743  0.0000
  O2     O2        0.761493821085306    0.226064338756030    0.666963426788068  0.0000
  O1     O1        0.743759410855038    0.667154728449267    0.640482785763491  0.0000
  O3     O3        0.143347304037011    0.231927537256957    0.111670631283591  0.0000
  O2     O2        0.365312202245872    0.705621765785625    0.114201576218915  0.0000
  O3     O3        0.864402654125137    0.214206366335606    0.860244236968070  0.0000
  O3     O3        0.642146424890193    0.701408116983118    0.855363549637294  0.0000
  O3     O3        0.844099828302162    0.755570448588501    0.849405901501351  0.0000
  O2     O2        0.676834036783809    0.203940447513472    0.872341312115209  0.0000
  O2     O2        0.164740219734293    0.733512551258433    0.111533393665075  0.0000
  O2     O2        0.347866496405772    0.212742863051417    0.118329144708525  0.0000
  O2     O2        0.635895734787286    0.460001445586204    0.034439925696800  0.0000
  O3     O3        0.882342006544252    0.521533895520462    0.020645053431605  0.0000
  O2     O2        0.372505491977822    0.442885933237959    0.938310328999784  0.0000
  O2     O2        0.136949734422663    0.478079253717221    0.937851693852476  0.0000
  O3     O3        0.764566048747971    0.276364453700755    0.076016082789278  0.0000
  O2     O2        0.750176034412494    0.684121000608057    0.037279936716875  0.0000
  O2     O2        0.246877896369556    0.240426464348604    0.926946424675793  0.0000
  O2     O2        0.262534922686512    0.679860141897344    0.920388615421016  0.0000
