data_c01234.vasp
_audit_creation_method             Generated by GULP
_audit_author_name                 Salvador R. G. Balestra
_symmetry_space_group_name_H-M     'P 1             '
_symmetry_Int_Tables_number        1

loop_
_symmetry_equiv_pos_site_id
_symmetry_equiv_pos_as_xyz
_cell_length_a                       17.1307
_cell_length_b                        7.6518
_cell_length_c                       10.2798
_cell_angle_alpha                   88.2642
_cell_angle_beta                    90.6857
_cell_angle_gamma                   89.0889

loop_
_atom_site_label
_atom_site_type_symbol
_atom_site_fract_x
_atom_site_fract_y
_atom_site_fract_z
_atom_site_charge
  Ge     Ge        0.160189999999943    0.293909999999983    0.273440000000051  0.0000
  Ge     Ge        0.836077682242595    0.284435278578897    0.689321748536316  0.0000
  Ge     Ge        0.645679678836263    0.334941207168937    0.696157469880645  0.0000
  Ge     Ge        0.838328185745240    0.258603697563271    0.999308307983809  0.0000
  Si     Si        0.051062913310640    0.989230697880669    0.357711249375788  0.0000
  Si     Si        0.455591693233024    0.984780889337433    0.350733046640893  0.0000
  Si     Si        0.952373290592146    0.994052492107390    0.613255455366867  0.0000
  Si     Si        0.545611173549645    0.027993841412333    0.614362243487685  0.0000
  Si     Si        0.562122586566634    0.996953215449020    0.101291845599825  0.0000
  Si     Si        0.945346742900337    0.966949253308323    0.102870018361199  0.0000
  Si     Si        0.443306739772926    0.002298993128526    0.864624931832225  0.0000
  Si     Si        0.055408662385817    0.022181623879007    0.864404641197371  0.0000
  Si     Si        0.345584728434472    0.693446569236550    0.265047275233100  0.0000
  Si     Si        0.667907583275829    0.740053081736622    0.711710944090366  0.0000
  Si     Si        0.845293633016944    0.685019764113717    0.707064190203615  0.0000
  Si     Si        0.164243784264408    0.703688769096452    0.269998934972417  0.0000
  Si     Si        0.343868593460907    0.290986745361086    0.270797278478303  0.0000
  Si     Si        0.650590790599353    0.312655501839503    0.997931262948571  0.0000
  Si     Si        0.850850833604143    0.651831007826442    0.017183993340722  0.0000
  Si     Si        0.340833629941812    0.306415373600502    0.965040135130271  0.0000
  Si     Si        0.158462003450013    0.709950358913571    0.966862159781146  0.0000
  Si     Si        0.339596379083104    0.704574451822763    0.962323942778658  0.0000
  Si     Si        0.160897058624377    0.308759516728964    0.963627206529169  0.0000
  Si     Si        0.673358961521179    0.704251650461698    0.019202664234127  0.0000
  O3     O3        0.093795070483203    0.173175145525363    0.359963057901608  0.0000
  O2     O2        0.400035890348211    0.816731867771563    0.348772075020516  0.0000
  O3     O3        0.890949955984437    0.150576134095439    0.590895780951021  0.0000
  O2     O2        0.619417941252482    0.900245830439197    0.647220478915655  0.0000
  O2     O2        0.908796400438375    0.817194576265432    0.654248642985442  0.0000
  O3     O3        0.578989097342516    0.221153422796910    0.604795912892154  0.0000
  O2     O2        0.118700327121987    0.840423057025464    0.357132529769585  0.0000
  O2     O2        0.403702751198209    0.162165960473009    0.348671168857108  0.0000
  O2     O2        0.998039494559004    0.959694944642457    0.481814261169591  0.0000
  O2     O2        0.506787297530208    0.971812237155144    0.480627742371023  0.0000
  O2     O2        0.996405038812165    0.970982566781393    0.231833205588545  0.0000
  O2     O2        0.513746603865042    0.983140059000966    0.231179053086086  0.0000
  O2     O2        0.015659309576573    0.035700073127756    0.723956559386371  0.0000
  O2     O2        0.480012369368190    0.008983016927694    0.723568500107930  0.0000
  O2     O2        0.603941295715285    0.184248236710836    0.095753592558411  0.0000
  O2     O2        0.916539600759114    0.770455992241066    0.080698248310843  0.0000
  O2     O2        0.394445114221614    0.181015134839862    0.881918688811214  0.0000
  O2     O2        0.104753679183466    0.840844471194848    0.879419336696925  0.0000
  O2     O2        0.386819832391829    0.836054126047567    0.870607545772605  0.0000
  O2     O2        0.111043254752621    0.189219579804566    0.869810722076961  0.0000
  O2     O2        0.626287507955324    0.840392129999822    0.105099291538099  0.0000
  O3     O3        0.872368539564682    0.098302481129586    0.107707273731055  0.0000
  O2     O2        0.508657985684171    0.975294139906797    0.975028373141166  0.0000
  O2     O2        0.992592835405211    0.037237716762454    0.977749028791286  0.0000
  O3     O3        0.137289846475297    0.509584037000469    0.300936830655491  0.0000
  O2     O2        0.368228701008337    0.490860084563475    0.295132913422503  0.0000
  O3     O3        0.852023595360104    0.500744836461472    0.640878754395859  0.0000
  O3     O3        0.643269349846971    0.556378079464301    0.655529055823587  0.0000
  O3     O3        0.256798374590645    0.257015275598816    0.318074432340193  0.0000
  O2     O2        0.255795346481958    0.723609688770837    0.302814604360500  0.0000
  O1     O1        0.737824741426522    0.253563858510383    0.673652338095899  0.0000
  O2     O2        0.759354934425663    0.772054876192360    0.682553571966493  0.0000
  O3     O3        0.149521414960350    0.245950466821026    0.111619662646366  0.0000
  O2     O2        0.356091365629728    0.744794657795322    0.113072822521530  0.0000
  O1     O1        0.869868234670079    0.234588980322951    0.844000308593098  0.0000
  O2     O2        0.655474853970911    0.738726222734198    0.866881767711168  0.0000
  O2     O2        0.857900545909408    0.644219456196547    0.861066652528970  0.0000
  O3     O3        0.613221928603868    0.310529126778775    0.854940449422565  0.0000
  O2     O2        0.147754576654140    0.753520673336770    0.117854129259350  0.0000
  O2     O2        0.349514992136823    0.254345791357183    0.117342710279887  0.0000
  O2     O2        0.648397536419234    0.506598036051115    0.057535112630216  0.0000
  O3     O3        0.862599502975026    0.455454344043981    0.068438287499716  0.0000
  O2     O2        0.366787740337087    0.505754035335097    0.936626202309512  0.0000
  O2     O2        0.132797275783571    0.510986170784496    0.944310085716991  0.0000
  O3     O3        0.738729100854399    0.248114489384245    0.981790023709539  0.0000
  O2     O2        0.764961440168437    0.728174413499471    0.051001621249696  0.0000
  O2     O2        0.250926922653021    0.287547658022846    0.923170327956813  0.0000
  O2     O2        0.248375255881252    0.732175511651358    0.928139997824174  0.0000
