data_c01225.vasp
_audit_creation_method             Generated by GULP
_audit_author_name                 Salvador R. G. Balestra
_symmetry_space_group_name_H-M     'P 1             '
_symmetry_Int_Tables_number        1

loop_
_symmetry_equiv_pos_site_id
_symmetry_equiv_pos_as_xyz
_cell_length_a                       17.1540
_cell_length_b                        7.6297
_cell_length_c                       10.2500
_cell_angle_alpha                   91.1013
_cell_angle_beta                    91.1870
_cell_angle_gamma                   90.3552

loop_
_atom_site_label
_atom_site_type_symbol
_atom_site_fract_x
_atom_site_fract_y
_atom_site_fract_z
_atom_site_charge
  Ge     Ge        0.160189999999943    0.293909999999983    0.273440000000051  0.0000
  Ge     Ge        0.851448673790434    0.285343537720009    0.699718670946038  0.0000
  Ge     Ge        0.834284488964102    0.707279544570317    0.699854663682847  0.0000
  Ge     Ge        0.855061771304478    0.304089443270090    0.014663431811485  0.0000
  Si     Si        0.057879015699785    0.987500021005560    0.365634016331866  0.0000
  Si     Si        0.459534707754315    0.982326871564144    0.344857752737227  0.0000
  Si     Si        0.955667482765947    0.981865418694716    0.612821621648138  0.0000
  Si     Si        0.548158772450497    0.963093993477043    0.615792045135188  0.0000
  Si     Si        0.561388581920330    0.977705510883560    0.091754652698815  0.0000
  Si     Si        0.948772548966113    0.992004597716161    0.118413916034540  0.0000
  Si     Si        0.441080686416982    0.967255261277168    0.856122846763552  0.0000
  Si     Si        0.055225013638135    0.967540651168487    0.874005267592514  0.0000
  Si     Si        0.352459939661882    0.674446909664727    0.259384810221010  0.0000
  Si     Si        0.652209945600589    0.658299029111098    0.700793731647199  0.0000
  Si     Si        0.670283102552603    0.257447477982842    0.705304180455922  0.0000
  Si     Si        0.172633650875944    0.702881607759209    0.263775554212059  0.0000
  Si     Si        0.343617166876593    0.271243143193657    0.266482658578612  0.0000
  Si     Si        0.675151213335860    0.272059427513912    0.014509390607387  0.0000
  Si     Si        0.836601823889688    0.712877611165419    0.007451131203692  0.0000
  Si     Si        0.334192737942687    0.259073982554721    0.960580076851151  0.0000
  Si     Si        0.167101026426147    0.680810296483451    0.958333312986677  0.0000
  Si     Si        0.346706472968941    0.657073760880090    0.955230532025184  0.0000
  Si     Si        0.153799074413714    0.281436844453409    0.962861702955665  0.0000
  Si     Si        0.657369870366240    0.663012103401004    0.006607915364592  0.0000
  O3     O3        0.095656490108705    0.179229463097943    0.365451902295063  0.0000
  O2     O2        0.411270274934211    0.800307025386262    0.340681530612541  0.0000
  O3     O3        0.918570452811192    0.172797346685025    0.607091679831905  0.0000
  O2     O2        0.587326316760955    0.771942601917215    0.625357533958617  0.0000
  O3     O3        0.883865088605871    0.846666353979221    0.601296937988423  0.0000
  O2     O2        0.612644189118407    0.112763996070959    0.643115151973267  0.0000
  O2     O2        0.128412153730921    0.852205648285691    0.343868708016097  0.0000
  O2     O2        0.400387511824444    0.145596737304196    0.347408240145088  0.0000
  O2     O2        0.019384822396242    0.951602955756143    0.503139577713960  0.0000
  O2     O2        0.513945134218273    0.988470620010770    0.472074287822529  0.0000
  O2     O2        0.990422895631737    0.960460704099562    0.256533030105144  0.0000
  O2     O2        0.514203200527298    0.998999381131603    0.222010206475666  0.0000
  O2     O2        0.998500535724630    0.944796062452042    0.750788137352674  0.0000
  O2     O2        0.477203518789524    0.980793994994493    0.714630270408870  0.0000
  O2     O2        0.626411505499215    0.129093951644724    0.090276347746076  0.0000
  O2     O2        0.875231343296800    0.859038077890314    0.104417393236530  0.0000
  O2     O2        0.376581671886238    0.117805132383713    0.870495115206543  0.0000
  O2     O2        0.119333301441840    0.813679977567876    0.868786845090696  0.0000
  O2     O2        0.401715871673766    0.775742752598689    0.868110500788640  0.0000
  O2     O2        0.097039071895813    0.158410867345401    0.873016929631787  0.0000
  O2     O2        0.601731712006958    0.787614938334915    0.090346050285657  0.0000
  O3     O3        0.920102773901548    0.190484867908741    0.111896845399730  0.0000
  O2     O2        0.507158089250713    0.001285236438354    0.965226783182729  0.0000
  O2     O2        0.007446997257826    0.942666142169276    0.004143606891908  0.0000
  O3     O3        0.141075760304764    0.513231116380275    0.298612989789054  0.0000
  O2     O2        0.371586975008392    0.472621243241953    0.288741712252951  0.0000
  O1     O1        0.871620218738506    0.502267201403942    0.684291719611321  0.0000
  O2     O2        0.635646334938065    0.450775080675470    0.677879003097606  0.0000
  O3     O3        0.256072998579736    0.250768620402516    0.313954018217659  0.0000
  O2     O2        0.264408875475803    0.716018208083517    0.300924192654737  0.0000
  O3     O3        0.755809870479652    0.241730590553782    0.647604296854767  0.0000
  O3     O3        0.737100621917740    0.703413070654830    0.650623957390550  0.0000
  O3     O3        0.141447616748746    0.234958224806199    0.112222973827056  0.0000
  O2     O2        0.361986054714075    0.711489110395645    0.106198965949837  0.0000
  O1     O1        0.863981029210130    0.224937384070295    0.858952615496288  0.0000
  O2     O2        0.647325924227496    0.707501349184830    0.854403994093528  0.0000
  O3     O3        0.839382238643944    0.779415803591779    0.860631343391464  0.0000
  O2     O2        0.681541529795181    0.228778146957392    0.860286034481485  0.0000
  O2     O2        0.161125512616159    0.736032398846722    0.109771118330046  0.0000
  O2     O2        0.346263350060346    0.218018471857993    0.113089682299788  0.0000
  O2     O2        0.634033763274216    0.461801666398105    0.033274313309036  0.0000
  O3     O3        0.877898735031266    0.525595715826709    0.018567610665739  0.0000
  O2     O2        0.367270341464508    0.453079144735572    0.931181379196568  0.0000
  O2     O2        0.132636836293310    0.484262609024445    0.937284515763360  0.0000
  O3     O3        0.761924020434130    0.275828592506444    0.072298701793880  0.0000
  O2     O2        0.747045319237413    0.691236284281376    0.050234721968184  0.0000
  O2     O2        0.242895492375398    0.247923729843536    0.924471833859410  0.0000
  O2     O2        0.256714501990959    0.688535957536523    0.915799755003132  0.0000
