data_c01268.vasp
_audit_creation_method             Generated by GULP
_audit_author_name                 Salvador R. G. Balestra
_symmetry_space_group_name_H-M     'P 1             '
_symmetry_Int_Tables_number        1

loop_
_symmetry_equiv_pos_site_id
_symmetry_equiv_pos_as_xyz
_cell_length_a                       17.2266
_cell_length_b                        7.6476
_cell_length_c                       10.2149
_cell_angle_alpha                   90.2570
_cell_angle_beta                    89.5161
_cell_angle_gamma                   89.1944

loop_
_atom_site_label
_atom_site_type_symbol
_atom_site_fract_x
_atom_site_fract_y
_atom_site_fract_z
_atom_site_charge
  Ge     Ge        0.160189999999943    0.293909999999983    0.273440000000051  0.0000
  Ge     Ge        0.670288855366285    0.722604814179515    0.702313580710119  0.0000
  Ge     Ge        0.654416643434123    0.307517686453368    0.697780748419701  0.0000
  Ge     Ge        0.835258878835887    0.266202515937452    0.017306213995878  0.0000
  Si     Si        0.052394713685445    0.994006326851635    0.355641010152044  0.0000
  Si     Si        0.451841902742865    0.987692431554262    0.362266057972540  0.0000
  Si     Si        0.954280213581712    0.971164247004530    0.614303383353595  0.0000
  Si     Si        0.548312904101049    0.006157965085747    0.618466634608789  0.0000
  Si     Si        0.559699344590795    0.002074779936992    0.118541975034311  0.0000
  Si     Si        0.948057752920902    0.976371476157961    0.103137698692062  0.0000
  Si     Si        0.448260210338516    0.979426056186719    0.878461121969241  0.0000
  Si     Si        0.059068646235850    0.997777012410794    0.859882775804812  0.0000
  Si     Si        0.345019427940567    0.689984375211221    0.262923949264639  0.0000
  Si     Si        0.837624940393703    0.263151729585792    0.704930977198330  0.0000
  Si     Si        0.851811227854040    0.667971327722322    0.710413237038200  0.0000
  Si     Si        0.165503688905669    0.702885965294987    0.270030842831658  0.0000
  Si     Si        0.343007473413063    0.288282206974617    0.268647384765334  0.0000
  Si     Si        0.651980981519854    0.310455466065348    0.011368393864482  0.0000
  Si     Si        0.849553297808712    0.667360819023059    0.017459504948379  0.0000
  Si     Si        0.342165229975450    0.286266526451287    0.961052608181667  0.0000
  Si     Si        0.162813006549778    0.693323461931693    0.964061694514763  0.0000
  Si     Si        0.341961348333941    0.684375163090924    0.957223431825277  0.0000
  Si     Si        0.162762156655243    0.290659759458733    0.962017681348456  0.0000
  Si     Si        0.669479998075869    0.711994876904798    0.014624319143813  0.0000
  O3     O3        0.096205429096572    0.175930951271279    0.366229172009795  0.0000
  O2     O2        0.400265465583121    0.816191288247112    0.343399936154331  0.0000
  O2     O2        0.891999476111327    0.130346554303548    0.621096268715475  0.0000
  O3     O3        0.619433874445894    0.869096624328582    0.609333327985982  0.0000
  O2     O2        0.915052040010996    0.782949276955812    0.634391431436038  0.0000
  O3     O3        0.586548631037714    0.194504494206165    0.610117917099487  0.0000
  O2     O2        0.118262674414768    0.842085366835321    0.357898686991615  0.0000
  O2     O2        0.400222194090373    0.162828403404828    0.348557358113947  0.0000
  O2     O2        0.990733767253068    0.969974490408067    0.470388637906466  0.0000
  O2     O2        0.484747261201028    0.979488369051259    0.507738391718334  0.0000
  O2     O2        0.007803943178503    0.980450740133125    0.219517612811617  0.0000
  O2     O2        0.524399956459626    0.990678745097256    0.263258784320658  0.0000
  O2     O2        0.023541473481904    0.996800721923715    0.716203519756903  0.0000
  O2     O2        0.506912924124626    0.976117088240761    0.758124853049512  0.0000
  O2     O2        0.593487036773807    0.195851677190543    0.099073594567658  0.0000
  O2     O2        0.906996364829216    0.788697564097771    0.098592370585536  0.0000
  O2     O2        0.395741988353037    0.155901979121084    0.875605058516325  0.0000
  O2     O2        0.109227881611879    0.820239838436461    0.878781376687027  0.0000
  O2     O2        0.393385184322655    0.810398234883188    0.868013596036090  0.0000
  O2     O2        0.112766178651083    0.168039138796457    0.868402854153649  0.0000
  O2     O2        0.626014677035399    0.852030710971408    0.107953617201352  0.0000
  O3     O3        0.883168100055702    0.125593344865276    0.119528330658088  0.0000
  O2     O2        0.493701566679589    0.965472765188606    0.013540964720689  0.0000
  O2     O2        0.990616504133914    0.014651004018713    0.965870657508912  0.0000
  O3     O3        0.137167065206566    0.510640606536741    0.300430579972930  0.0000
  O2     O2        0.367533219978021    0.489022526247548    0.293258632415399  0.0000
  O2     O2        0.852458273739479    0.465573580710752    0.662714016707163  0.0000
  O1     O1        0.650267713795821    0.517590077249003    0.647020650221958  0.0000
  O3     O3        0.255820798744584    0.258106238822422    0.315800229026250  0.0000
  O2     O2        0.255970505436163    0.723442596413011    0.305655127087420  0.0000
  O3     O3        0.747972908414863    0.222611949274576    0.681214426129781  0.0000
  O3     O3        0.768741254673674    0.755325529737815    0.685830361199696  0.0000
  O3     O3        0.149065107395586    0.236851577171485    0.111142560898330  0.0000
  O2     O2        0.354253967069795    0.730511914032522    0.109381968898697  0.0000
  O3     O3        0.859507524063851    0.235625968459227    0.855308768912177  0.0000
  O3     O3        0.645957633762435    0.745710400365207    0.866070209147337  0.0000
  O2     O2        0.871740531086131    0.671353298642916    0.864051088134445  0.0000
  O3     O3        0.628811453679640    0.293244860982838    0.861226428615546  0.0000
  O2     O2        0.153274872331002    0.744059924510953    0.116308874016963  0.0000
  O2     O2        0.350700091615024    0.243730387606062    0.114417157270262  0.0000
  O2     O2        0.646928419356723    0.514377259336840    0.054924550611724  0.0000
  O3     O3        0.858183519699633    0.473812408229627    0.070110953172835  0.0000
  O2     O2        0.368169593394694    0.483941332465802    0.930118857784704  0.0000
  O2     O2        0.136976697517768    0.493194474444065    0.942302719116052  0.0000
  O3     O3        0.737459217270753    0.234793459366409    0.033387715127484  0.0000
  O2     O2        0.761255094981085    0.737942323808375    0.032946080221858  0.0000
  O2     O2        0.252800982857148    0.263834544395505    0.921937328832857  0.0000
  O2     O2        0.252146045924413    0.713660791543686    0.919937216594894  0.0000
