data_c01238.vasp
_audit_creation_method             Generated by GULP
_audit_author_name                 Salvador R. G. Balestra
_symmetry_space_group_name_H-M     'P 1             '
_symmetry_Int_Tables_number        1

loop_
_symmetry_equiv_pos_site_id
_symmetry_equiv_pos_as_xyz
_cell_length_a                       17.0924
_cell_length_b                        7.6049
_cell_length_c                       10.2865
_cell_angle_alpha                   90.6200
_cell_angle_beta                    89.7726
_cell_angle_gamma                   89.7724

loop_
_atom_site_label
_atom_site_type_symbol
_atom_site_fract_x
_atom_site_fract_y
_atom_site_fract_z
_atom_site_charge
  Ge     Ge        0.160189999999943    0.293909999999983    0.273440000000051  0.0000
  Ge     Ge        0.858896873871929    0.295692278598567    0.691210404059579  0.0000
  Ge     Ge        0.680032905566984    0.255964746023717    0.007411067810858  0.0000
  Ge     Ge        0.364354039672289    0.640281350512717    0.958727116758941  0.0000
  Si     Si        0.056760771859555    0.985666712264731    0.353976507357990  0.0000
  Si     Si        0.458895951756484    0.970361936576211    0.357369621249074  0.0000
  Si     Si        0.963697877530319    0.981887685925301    0.613882882741728  0.0000
  Si     Si        0.558820798377179    0.976488488607218    0.615526703537274  0.0000
  Si     Si        0.568525900234074    0.972293063167187    0.108771498905752  0.0000
  Si     Si        0.954501911579434    0.979143940293764    0.101771240452003  0.0000
  Si     Si        0.459149064590703    0.958995451555834    0.868151427569258  0.0000
  Si     Si        0.069120326463294    0.963651068163004    0.865928946217835  0.0000
  Si     Si        0.356564306687678    0.665009431006514    0.267163565424298  0.0000
  Si     Si        0.663248890770544    0.671366191445250    0.709447232266426  0.0000
  Si     Si        0.843435952931940    0.705168790165959    0.703332252695501  0.0000
  Si     Si        0.676927632060672    0.263295601214818    0.697509741194327  0.0000
  Si     Si        0.177086221679674    0.701875682648444    0.255086072137061  0.0000
  Si     Si        0.343411116651846    0.261092325977354    0.278113302335264  0.0000
  Si     Si        0.843423992571626    0.692425428588237    0.006619059931332  0.0000
  Si     Si        0.343660616684353    0.236809421641715    0.973141512762011  0.0000
  Si     Si        0.181617609866551    0.674935939089399    0.949889946389971  0.0000
  Si     Si        0.163144485595214    0.277686380817873    0.965188654306721  0.0000
  Si     Si        0.662016815086034    0.659000462954269    0.009841050502072  0.0000
  Si     Si        0.861886678325058    0.294978536718006    0.003262811386895  0.0000
  O3     O3        0.092428188360579    0.179344715816885    0.362782253005915  0.0000
  O2     O2        0.411898990484506    0.787065471247453    0.356198834499326  0.0000
  O3     O3        0.928457509411740    0.176494644046504    0.606446961923749  0.0000
  O2     O2        0.604162185864006    0.790497688194109    0.627361733194187  0.0000
  O2     O2        0.888783557869131    0.853674350886327    0.624084431692089  0.0000
  O2     O2        0.619582367022320    0.137538371887937    0.615545210147415  0.0000
  O2     O2        0.130217382235383    0.856801632201163    0.327162230625808  0.0000
  O2     O2        0.398090677441883    0.133147802500658    0.361706219107533  0.0000
  O2     O2        0.014305799913431    0.934821739179456    0.487097988050391  0.0000
  O2     O2        0.513643368711746    0.977162138151713    0.481207399596847  0.0000
  O2     O2        0.992605036198385    0.966372961101833    0.241936489009907  0.0000
  O2     O2        0.513174443803408    0.986926141694073    0.231759940548232  0.0000
  O2     O2        0.019467562796035    0.954215808765235    0.736218957463603  0.0000
  O2     O2        0.495122046844192    0.003351872900374    0.728968365629291  0.0000
  O3     O3        0.636157384529516    0.115075514907063    0.113336938008511  0.0000
  O2     O2        0.883872252335858    0.838918688901719    0.096612352006728  0.0000
  O2     O2        0.381143455628357    0.075419599353081    0.893038406623330  0.0000
  O2     O2        0.134248145844094    0.810190404599739    0.860843567189688  0.0000
  O3     O3        0.433445348719549    0.757166171581501    0.873620917055340  0.0000
  O2     O2        0.109154525334575    0.155186511545853    0.874390866554203  0.0000
  O2     O2        0.607285423490978    0.778482296608759    0.102158416220697  0.0000
  O2     O2        0.923916687681152    0.177784220034431    0.082362243080362  0.0000
  O2     O2        0.521179811257623    0.014681029651830    0.977635115505335  0.0000
  O2     O2        0.015852591318500    0.925131324718961    0.990593371717753  0.0000
  O3     O3        0.139648874809685    0.515471577652632    0.287047400934732  0.0000
  O2     O2        0.375443415419329    0.460244931122415    0.292608584051724  0.0000
  O3     O3        0.878488014185566    0.515690474814958    0.669712827493054  0.0000
  O2     O2        0.645729332584223    0.464912815594212    0.689346943219232  0.0000
  O3     O3        0.254486749226279    0.253812195124757    0.325742595101511  0.0000
  O2     O2        0.266418097043442    0.704227828531524    0.305243471120573  0.0000
  O3     O3        0.764202240638611    0.254407433014083    0.641157299189565  0.0000
  O2     O2        0.751884384043900    0.711432336217550    0.664707775787903  0.0000
  O3     O3        0.148212346392319    0.227759434285320    0.113490195363237  0.0000
  O3     O3        0.372151284268473    0.710243163797151    0.118104882320405  0.0000
  O3     O3        0.866674858203738    0.241107634292939    0.852694765450305  0.0000
  O2     O2        0.651307345383208    0.722174391779351    0.860984815093181  0.0000
  O2     O2        0.850457191742678    0.748071779888028    0.856741006099921  0.0000
  O3     O3        0.677565276717199    0.197827238925686    0.845442266994817  0.0000
  O2     O2        0.179085096335435    0.735381650090480    0.100672753265952  0.0000
  O2     O2        0.346144047320063    0.200578069588082    0.127312474693942  0.0000
  O3     O3        0.636636396579532    0.460573286428055    0.025883362468884  0.0000
  O2     O2        0.883658464778833    0.501315755143190    0.023656631336221  0.0000
  O3     O3        0.386337853109649    0.418921865619599    0.943779088297121  0.0000
  O2     O2        0.142560244619239    0.481449780722154    0.937879564721436  0.0000
  O3     O3        0.775875251026532    0.262791676566796    0.057189510838163  0.0000
  O2     O2        0.752895952770080    0.681224574354256    0.048699815678155  0.0000
  O2     O2        0.253878802209701    0.248370959836885    0.928812059005310  0.0000
  O3     O3        0.270462638102385    0.671452926353247    0.902485457054680  0.0000
