data_c01248.vasp
_audit_creation_method             Generated by GULP
_audit_author_name                 Salvador R. G. Balestra
_symmetry_space_group_name_H-M     'P 1             '
_symmetry_Int_Tables_number        1

loop_
_symmetry_equiv_pos_site_id
_symmetry_equiv_pos_as_xyz
_cell_length_a                       17.2263
_cell_length_b                        7.6485
_cell_length_c                       10.1624
_cell_angle_alpha                   89.6204
_cell_angle_beta                    90.2836
_cell_angle_gamma                   91.0679

loop_
_atom_site_label
_atom_site_type_symbol
_atom_site_fract_x
_atom_site_fract_y
_atom_site_fract_z
_atom_site_charge
  Ge     Ge        0.160189999999943    0.293909999999983    0.273440000000051  0.0000
  Ge     Ge        0.843029110803929    0.325350450639515    0.689114268586748  0.0000
  Ge     Ge        0.329789089414810    0.717824366641170    0.944837135883491  0.0000
  Ge     Ge        0.651553282545971    0.680321582798313    0.015146678024021  0.0000
  Si     Si        0.044958916162741    0.996800952726841    0.347940016897471  0.0000
  Si     Si        0.446875075370499    0.025927780450976    0.353836775952011  0.0000
  Si     Si        0.948195036806162    0.021731867338288    0.604651962791912  0.0000
  Si     Si        0.548015082814099    0.013236834275058    0.612454659948213  0.0000
  Si     Si        0.549198120005201    0.978434144590340    0.104396904790149  0.0000
  Si     Si        0.939837067751188    0.007626774440692    0.092641940305391  0.0000
  Si     Si        0.439106683974574    0.011806471469230    0.860557750304460  0.0000
  Si     Si        0.053238885773170    0.990931814996064    0.853238786326458  0.0000
  Si     Si        0.332777375244520    0.730683092116430    0.257612147645756  0.0000
  Si     Si        0.652326971280482    0.710570087332618    0.702437141642701  0.0000
  Si     Si        0.831258820638701    0.732255691162158    0.708360962613768  0.0000
  Si     Si        0.661094656242920    0.308743413241040    0.682311397701247  0.0000
  Si     Si        0.154059583850704    0.701941101553622    0.260947709889896  0.0000
  Si     Si        0.341993287094064    0.325842867847707    0.269257987038314  0.0000
  Si     Si        0.658070234211256    0.279103663088291    0.990364162473651  0.0000
  Si     Si        0.833429967062673    0.700495798424185    0.017449173583987  0.0000
  Si     Si        0.341019093295669    0.316896635341989    0.961735400762568  0.0000
  Si     Si        0.148604491601799    0.681472159134880    0.952133431252667  0.0000
  Si     Si        0.161156997198611    0.283537558137501    0.961223851207545  0.0000
  Si     Si        0.837188500865977    0.303621186868452    0.001990084296430  0.0000
  O3     O3        0.101308858144041    0.162752160424426    0.369270499146749  0.0000
  O2     O2        0.385563616467962    0.865415529193973    0.340633389946635  0.0000
  O3     O3        0.910788021890128    0.211597703583577    0.601818085943987  0.0000
  O2     O2        0.597078591193762    0.835712467983927    0.617033554850493  0.0000
  O2     O2        0.878241839687408    0.886751254600535    0.636876334601573  0.0000
  O2     O2        0.605406175431955    0.181455304442330    0.596781711940556  0.0000
  O2     O2        0.098382349031829    0.827094364893229    0.341000519869084  0.0000
  O2     O2        0.403197993960812    0.211028317182477    0.350886494701304  0.0000
  O2     O2        0.983249097958884    0.975211024447806    0.463885523589175  0.0000
  O2     O2        0.488692579439344    0.004118858595638    0.492580402213584  0.0000
  O2     O2        0.998301190336891    0.021506023010466    0.212903405138586  0.0000
  O2     O2        0.512373150753423    0.026431291074101    0.242717499800315  0.0000
  O2     O2        0.018517718558113    0.006602917775091    0.707998981285219  0.0000
  O2     O2        0.498885075950011    0.036131114492814    0.743917135507776  0.0000
  O2     O2        0.612622466249158    0.125215742814279    0.064314894468543  0.0000
  O2     O2        0.889713598276889    0.827541893716234    0.101683001133440  0.0000
  O2     O2        0.394526159205589    0.192536762262533    0.877490219069226  0.0000
  O2     O2        0.088147630972859    0.797847028951938    0.870564766543795  0.0000
  O3     O3        0.377455944569059    0.856665499119753    0.837667690110147  0.0000
  O2     O2        0.118828019576156    0.142040156121929    0.868512402406350  0.0000
  O3     O3        0.592127476552839    0.796065931001074    0.116210575749075  0.0000
  O2     O2        0.884240251790374    0.174342675997771    0.096954391747065  0.0000
  O2     O2        0.482531667891972    0.958906567053702    0.994982342713770  0.0000
  O2     O2        0.985686082582242    0.018741824667723    0.956802711708630  0.0000
  O3     O3        0.129888662630870    0.505130016286521    0.292763688998021  0.0000
  O2     O2        0.361885620657007    0.532807296100593    0.282026116799963  0.0000
  O3     O3        0.865107410054220    0.545887873736421    0.673309220522979  0.0000
  O2     O2        0.631343159591390    0.507898307820021    0.671554569675843  0.0000
  O3     O3        0.256269147339510    0.284846044067026    0.321312538746098  0.0000
  O2     O2        0.243267608617268    0.741653348340559    0.303921945209990  0.0000
  O3     O3        0.748652266788049    0.295594424863973    0.633224300859337  0.0000
  O2     O2        0.741831374608398    0.745588313537143    0.662003330602669  0.0000
  O3     O3        0.152337129041292    0.226754970903125    0.111825097538549  0.0000
  O3     O3        0.338056486892561    0.784684753038674    0.106004332368437  0.0000
  O3     O3        0.849930058925960    0.257481245950157    0.850804235199138  0.0000
  O3     O3        0.640892644643211    0.752423365294576    0.854828290822748  0.0000
  O2     O2        0.834219367155001    0.760463715425753    0.865259152545758  0.0000
  O2     O2        0.657584024140463    0.245981977928450    0.834148014405142  0.0000
  O2     O2        0.146868195452866    0.737806587648457    0.104662770428644  0.0000
  O2     O2        0.347328350888913    0.271534001245484    0.116471485062480  0.0000
  O3     O3        0.621838086696574    0.463775688764090    0.023303446926106  0.0000
  O2     O2        0.865028889895456    0.503181496666162    0.029798085673533  0.0000
  O3     O3        0.368471420313810    0.512503828513936    0.932563992280845  0.0000
  O2     O2        0.124781838443712    0.476067038186113    0.939660579969819  0.0000
  O2     O2        0.746919800387887    0.282546477316785    0.039792629867389  0.0000
  O3     O3        0.746249923942010    0.707390374277788    0.068419630318828  0.0000
  O2     O2        0.251179312145609    0.291409488897835    0.919423914604067  0.0000
  O3     O3        0.233876706784700    0.713509273195859    0.896689646657558  0.0000
