data_c01257.vasp
_audit_creation_method             Generated by GULP
_audit_author_name                 Salvador R. G. Balestra
_symmetry_space_group_name_H-M     'P 1             '
_symmetry_Int_Tables_number        1

loop_
_symmetry_equiv_pos_site_id
_symmetry_equiv_pos_as_xyz
_cell_length_a                       17.1577
_cell_length_b                        7.6390
_cell_length_c                       10.2437
_cell_angle_alpha                   91.3133
_cell_angle_beta                    90.8254
_cell_angle_gamma                   89.6039

loop_
_atom_site_label
_atom_site_type_symbol
_atom_site_fract_x
_atom_site_fract_y
_atom_site_fract_z
_atom_site_charge
  Ge     Ge        0.160189999999943    0.293909999999983    0.273440000000051  0.0000
  Ge     Ge        0.653967675333434    0.636148673413789    0.697324652035756  0.0000
  Ge     Ge        0.842206866864981    0.658712019403739    0.694510960940248  0.0000
  Ge     Ge        0.154975510854932    0.293046006618547    0.953765039233818  0.0000
  Si     Si        0.056948050419917    0.990660995923390    0.364236326903645  0.0000
  Si     Si        0.459207904457807    0.974201611693460    0.358303111859568  0.0000
  Si     Si        0.956864677168899    0.944891233576748    0.616309438671063  0.0000
  Si     Si        0.550168656823336    0.947679575406997    0.623254199370775  0.0000
  Si     Si        0.567992933578025    0.967973129441290    0.117241420119077  0.0000
  Si     Si        0.950610190948787    0.970614895217754    0.113364479887692  0.0000
  Si     Si        0.450072190809069    0.964538119206865    0.879747556646961  0.0000
  Si     Si        0.059536035047572    0.974139601653976    0.870259557840484  0.0000
  Si     Si        0.353919821279036    0.668697458867161    0.267742085788662  0.0000
  Si     Si        0.850675523160374    0.250906784768764    0.709347197276603  0.0000
  Si     Si        0.668904050230939    0.228857581543892    0.712662384278671  0.0000
  Si     Si        0.174610294715095    0.703901400125720    0.267593925571326  0.0000
  Si     Si        0.340999524646749    0.267310689266098    0.267823086673716  0.0000
  Si     Si        0.673670602043278    0.256282980502679    0.017268674400950  0.0000
  Si     Si        0.843002590909596    0.678480285039043    0.005470663422193  0.0000
  Si     Si        0.336280061801113    0.261287012527315    0.958630581341748  0.0000
  Si     Si        0.174005007929138    0.695411034675392    0.960498085306524  0.0000
  Si     Si        0.353735837592097    0.654808396604549    0.963746183460956  0.0000
  Si     Si        0.662291375191265    0.655004936234998    0.008998619481130  0.0000
  Si     Si        0.853511467145019    0.277773786747520    0.012487070708877  0.0000
  O3     O3        0.093473246945745    0.181618181668122    0.363247425885047  0.0000
  O2     O2        0.413026740937854    0.791084558004151    0.350060340378032  0.0000
  O2     O2        0.902511157752835    0.117615806411849    0.624683916693555  0.0000
  O3     O3        0.584454234684733    0.753295938659871    0.612106786071696  0.0000
  O3     O3        0.900702127585575    0.781016486354075    0.597255871478721  0.0000
  O2     O2        0.625098393673635    0.075145817768903    0.633081345170606  0.0000
  O2     O2        0.128378096724084    0.854150704725242    0.345988076737605  0.0000
  O2     O2        0.400774930485065    0.135404700974059    0.335331500487782  0.0000
  O2     O2        0.017759546969278    0.959904702944730    0.501796018056589  0.0000
  O2     O2        0.496040746838621    0.996038404594723    0.501398099816564  0.0000
  O2     O2        0.990359331596945    0.960660920921680    0.254405184987538  0.0000
  O2     O2        0.529910471317210    0.976095677399081    0.258143333402665  0.0000
  O2     O2        0.005798471334554    0.917777008025541    0.749133238590303  0.0000
  O2     O2        0.498918361912020    0.978325642209583    0.750752534543133  0.0000
  O2     O2        0.629747513370913    0.125639857792313    0.110915363053142  0.0000
  O2     O2        0.888189496931960    0.814677904232012    0.100286728231215  0.0000
  O2     O2        0.384989325426210    0.115894890761826    0.880160216931947  0.0000
  O2     O2        0.135570598026725    0.847912762237143    0.875802559477253  0.0000
  O2     O2        0.410109657264538    0.773661229355345    0.879896363503473  0.0000
  O3     O3        0.089380883695089    0.170759826163121    0.860783261968920  0.0000
  O2     O2        0.610088813675747    0.780158636965117    0.100865186032905  0.0000
  O2     O2        0.909645339466629    0.161334554140812    0.102516257740573  0.0000
  O2     O2        0.502883410746162    0.996610990310830    0.007200595289259  0.0000
  O2     O2        0.014457155413389    0.943171657902461    0.003499106102127  0.0000
  O3     O3        0.141540984997966    0.515066975850716    0.297106279781762  0.0000
  O2     O2        0.372381629771448    0.465090669505067    0.293344387413990  0.0000
  O3     O3        0.874621221002846    0.445259303626216    0.678685594981157  0.0000
  O3     O3        0.633559249201405    0.415926328271094    0.678920843517439  0.0000
  O3     O3        0.255197440516137    0.250663726598886    0.323905237753155  0.0000
  O2     O2        0.265732906067474    0.712627861493385    0.310242600335355  0.0000
  O2     O2        0.759623400176942    0.223665215588515    0.673254040408924  0.0000
  O1     O1        0.746700290621916    0.674103076114043    0.646746727100110  0.0000
  O1     O1        0.145351878002022    0.236141389462461    0.113015488051228  0.0000
  O2     O2        0.365196050838473    0.709433054301618    0.115574413713982  0.0000
  O2     O2        0.864533371701391    0.213358328113405    0.862918660510275  0.0000
  O3     O3        0.646380592168990    0.700149950223382    0.859951887845536  0.0000
  O3     O3        0.850478808392901    0.729117517698585    0.856062804925402  0.0000
  O2     O2        0.662212406514363    0.194676285212821    0.867150725746559  0.0000
  O2     O2        0.167845956741598    0.740908661501158    0.114056324042290  0.0000
  O2     O2        0.332932872173662    0.224627443540019    0.113082302562953  0.0000
  O2     O2        0.640278454126509    0.453341915386203    0.035984184522920  0.0000
  O2     O2        0.876854900779774    0.481802159364089    0.027234864481322  0.0000
  O2     O2        0.375686596235708    0.451400971785861    0.938413735512058  0.0000
  O3     O3        0.132910168992181    0.511456149035439    0.931855034597891  0.0000
  O2     O2        0.764834491966992    0.251554962707007    0.055787316477008  0.0000
  O2     O2        0.752763898271966    0.684824738652476    0.044709981093322  0.0000
  O3     O3        0.249438019530271    0.258388929123013    0.902899767051994  0.0000
  O2     O2        0.264352803390882    0.684224663865614    0.920487308662758  0.0000
