data_c01222.vasp
_audit_creation_method             Generated by GULP
_audit_author_name                 Salvador R. G. Balestra
_symmetry_space_group_name_H-M     'P 1             '
_symmetry_Int_Tables_number        1

loop_
_symmetry_equiv_pos_site_id
_symmetry_equiv_pos_as_xyz
_cell_length_a                       17.1623
_cell_length_b                        7.6009
_cell_length_c                       10.2644
_cell_angle_alpha                   90.9774
_cell_angle_beta                    90.3698
_cell_angle_gamma                   89.6283

loop_
_atom_site_label
_atom_site_type_symbol
_atom_site_fract_x
_atom_site_fract_y
_atom_site_fract_z
_atom_site_charge
  Ge     Ge        0.160189999999943    0.293909999999983    0.273440000000051  0.0000
  Ge     Ge        0.855645291820745    0.281942854971884    0.695167704256000  0.0000
  Ge     Ge        0.839043759891220    0.703597153106669    0.703774370769226  0.0000
  Ge     Ge        0.355226493589329    0.633263026660443    0.946807025844957  0.0000
  Si     Si        0.058043317374617    0.988411213916600    0.358878274663039  0.0000
  Si     Si        0.459787916146819    0.972165087137749    0.349012272530262  0.0000
  Si     Si        0.960952336184119    0.975912946679668    0.611914155881665  0.0000
  Si     Si        0.552402487535459    0.967282633806111    0.616309572204136  0.0000
  Si     Si        0.564712071660623    0.966909211031862    0.099155711202650  0.0000
  Si     Si        0.948639748395891    0.972936106201127    0.113812195198500  0.0000
  Si     Si        0.448903144794297    0.949645413953640    0.860946837245587  0.0000
  Si     Si        0.059104521772309    0.958363358404201    0.872620184536310  0.0000
  Si     Si        0.355020948167519    0.666765447765563    0.256037427340646  0.0000
  Si     Si        0.657044393876491    0.659692416388685    0.705604744276998  0.0000
  Si     Si        0.672248986883668    0.253714963931724    0.698745938200313  0.0000
  Si     Si        0.176548191546583    0.702139687083306    0.254265089978972  0.0000
  Si     Si        0.342432462925634    0.261730094040562    0.270225255144632  0.0000
  Si     Si        0.675574230000458    0.253762380932756    0.004639725971747  0.0000
  Si     Si        0.839649563562122    0.686836250495943    0.012142042990755  0.0000
  Si     Si        0.335423564534824    0.230608486781055    0.964976368750424  0.0000
  Si     Si        0.173630789168242    0.668744481464393    0.947995597893307  0.0000
  Si     Si        0.155585426131517    0.272320655178513    0.964215581678416  0.0000
  Si     Si        0.660854444138375    0.650878861764666    0.011140294998323  0.0000
  Si     Si        0.854606800841552    0.281530421364632    0.003366587564349  0.0000
  O3     O3        0.094050994342538    0.181466867529414    0.365285957695928  0.0000
  O2     O2        0.413645327064146    0.788745687196921    0.339331897314000  0.0000
  O3     O3        0.924760708623257    0.169643645654029    0.605102314024464  0.0000
  O2     O2        0.592153749617234    0.776067582038907    0.633017285948304  0.0000
  O3     O3        0.887355673857831    0.847357202636263    0.607264606570798  0.0000
  O2     O2        0.617178568156095    0.119266654513299    0.620374401458456  0.0000
  O2     O2        0.129761992790749    0.858217156030685    0.325236849224401  0.0000
  O2     O2        0.399234221960041    0.135280040449366    0.351238996684399  0.0000
  O2     O2        0.022200131952519    0.939529307708528    0.497411316496470  0.0000
  O2     O2        0.509252110690396    0.973871638781986    0.479775775296483  0.0000
  O2     O2        0.988674611901144    0.971238703021029    0.254179297499907  0.0000
  O2     O2        0.519959693789902    0.994769539938263    0.232488779473542  0.0000
  O2     O2        0.004180250079844    0.939638528996639    0.748345931679129  0.0000
  O2     O2        0.488327388062758    0.002648940115295    0.726957005114679  0.0000
  O2     O2        0.631745349977705    0.113082791284542    0.090919127892592  0.0000
  O2     O2        0.884508481055127    0.818406136213910    0.110910022746133  0.0000
  O2     O2        0.371638830400450    0.068128632018301    0.884283094734340  0.0000
  O2     O2        0.123642711893315    0.804309030202579    0.863428316448267  0.0000
  O3     O3        0.421288568224047    0.749199319547682    0.856800993864783  0.0000
  O2     O2        0.099693009482596    0.149564908890601    0.875370502499648  0.0000
  O2     O2        0.603005804304584    0.772101235565217    0.096341272985315  0.0000
  O2     O2        0.910710194930269    0.165990318630928    0.095044499490308  0.0000
  O2     O2        0.507457249198596    0.993568336863908    0.978442421960358  0.0000
  O2     O2        0.010980460926291    0.927975014281273    0.003043393877441  0.0000
  O3     O3        0.140639587985583    0.516089409038557    0.289461263133156  0.0000
  O2     O2        0.373611821076097    0.461743872016122    0.281672801592733  0.0000
  O1     O1        0.875141661364265    0.497538755402715    0.675718009387111  0.0000
  O2     O2        0.642033030767050    0.453099276508411    0.676874627891918  0.0000
  O3     O3        0.255028689762140    0.253992887540019    0.322398145547552  0.0000
  O2     O2        0.266597735331332    0.709351915423326    0.300796543285399  0.0000
  O3     O3        0.760181142804925    0.235915002302074    0.650077637381040  0.0000
  O3     O3        0.741920820524158    0.709836022834922    0.658135570929419  0.0000
  O3     O3        0.144251934217406    0.225994792757014    0.113960520447111  0.0000
  O3     O3        0.366164814018360    0.707967305947836    0.105438542453031  0.0000
  O3     O3        0.866695673726680    0.219470375127583    0.855921366521294  0.0000
  O2     O2        0.651000700407585    0.700387429695538    0.860189696733697  0.0000
  O3     O3        0.846450172211976    0.758395366484300    0.867418358862048  0.0000
  O2     O2        0.669738563445442    0.206720183732831    0.851594992986637  0.0000
  O2     O2        0.175859152621260    0.729489892389809    0.099113670325186  0.0000
  O2     O2        0.341031267909219    0.198020214122823    0.119540697816467  0.0000
  O2     O2        0.638807552854531    0.447418156655628    0.032549171013108  0.0000
  O2     O2        0.875279662057400    0.488788576924259    0.018187416166186  0.0000
  O3     O3        0.377156197832687    0.411959421594148    0.932495640143895  0.0000
  O2     O2        0.134069169303050    0.475738809027767    0.937459337784059  0.0000
  O2     O2        0.765752741589899    0.251677845523066    0.047136819072958  0.0000
  O2     O2        0.749611307892096    0.683661800582386    0.055366077137666  0.0000
  O2     O2        0.245084563784639    0.241234453986622    0.923843997313329  0.0000
  O3     O3        0.260442518015324    0.663180820917496    0.894385906867605  0.0000
