data_c01273.vasp
_audit_creation_method             Generated by GULP
_audit_author_name                 Salvador R. G. Balestra
_symmetry_space_group_name_H-M     'P 1             '
_symmetry_Int_Tables_number        1

loop_
_symmetry_equiv_pos_site_id
_symmetry_equiv_pos_as_xyz
_cell_length_a                       17.1349
_cell_length_b                        7.6405
_cell_length_c                       10.2096
_cell_angle_alpha                   91.0829
_cell_angle_beta                    89.8378
_cell_angle_gamma                   89.7751

loop_
_atom_site_label
_atom_site_type_symbol
_atom_site_fract_x
_atom_site_fract_y
_atom_site_fract_z
_atom_site_charge
  Ge     Ge        0.160189999999943    0.293909999999983    0.273440000000051  0.0000
  Ge     Ge        0.657468860983294    0.719685334413736    0.705375009122285  0.0000
  Ge     Ge        0.649488281321572    0.335543434277285    0.026395282184694  0.0000
  Ge     Ge        0.165709094443140    0.290807610410730    0.956060725618950  0.0000
  Si     Si        0.042604715082339    0.009930179046140    0.355597965684330  0.0000
  Si     Si        0.444088977525224    0.023335578896447    0.366873184115081  0.0000
  Si     Si        0.942425170103468    0.987028258897035    0.610892788490463  0.0000
  Si     Si        0.541434972943651    0.009140752375907    0.625405832213461  0.0000
  Si     Si        0.555570053000159    0.022392867645298    0.128552863705872  0.0000
  Si     Si        0.945340484404974    0.020685827935425    0.092821371968481  0.0000
  Si     Si        0.443643631266581    0.014622753921591    0.887518898250284  0.0000
  Si     Si        0.056412757093587    0.003598891116599    0.850245516362492  0.0000
  Si     Si        0.329805273074696    0.731584539140963    0.275000237084597  0.0000
  Si     Si        0.828839837162796    0.285425125762173    0.713744387857999  0.0000
  Si     Si        0.840102759681451    0.684901596308081    0.698352255557928  0.0000
  Si     Si        0.648975392072261    0.306986579812387    0.717419016520532  0.0000
  Si     Si        0.149442142694013    0.707432620762092    0.270689194958865  0.0000
  Si     Si        0.340473342609946    0.331568098722798    0.273788179029021  0.0000
  Si     Si        0.845129740721928    0.704641365797433    0.005041623418837  0.0000
  Si     Si        0.345404699392959    0.335237745126534    0.962838805178556  0.0000
  Si     Si        0.150069388305901    0.698022353970779    0.967005967192469  0.0000
  Si     Si        0.330789346162973    0.728818407548630    0.969259178319945  0.0000
  Si     Si        0.665099723606832    0.743070397416896    0.014251807232727  0.0000
  Si     Si        0.831961482320725    0.310990814251783    0.021356423357768  0.0000
  O3     O3        0.101890565824753    0.169415620496529    0.372024627847046  0.0000
  O2     O2        0.379282800099964    0.871391076254255    0.358502203262318  0.0000
  O2     O2        0.879865394489630    0.141371974766264    0.636949774975258  0.0000
  O3     O3        0.598627100430240    0.844278142025757    0.607654510984528  0.0000
  O2     O2        0.900162074297785    0.799261830017768    0.614879346512258  0.0000
  O2     O2        0.593647107603317    0.183772962984426    0.629287393189483  0.0000
  O2     O2        0.092772708085664    0.830527064880396    0.357559811919872  0.0000
  O2     O2        0.406010832721265    0.211985292016259    0.339744103749821  0.0000
  O2     O2        0.977673414340218    0.009759247844490    0.467698847839981  0.0000
  O2     O2        0.478539018459812    0.024393299861395    0.511503358039707  0.0000
  O2     O2        0.998673609740199    0.030437957469787    0.218782451271393  0.0000
  O2     O2        0.514926591252459    0.986461306521829    0.266744171470031  0.0000
  O2     O2        0.012984060319033    0.994047668428442    0.712713748197315  0.0000
  O2     O2        0.494101668582080    0.983723044291700    0.759124347695914  0.0000
  O3     O3        0.586406439960131    0.219512717438482    0.123157790164127  0.0000
  O2     O2        0.903306080607147    0.832535022418232    0.082794096701913  0.0000
  O2     O2        0.411130520304966    0.213392755645855    0.894408561878461  0.0000
  O2     O2        0.095723919259079    0.815925193738832    0.876809936689862  0.0000
  O2     O2        0.372945860602475    0.875652380011246    0.884851168367775  0.0000
  O3     O3        0.120995986011341    0.152169275614439    0.845717990722842  0.0000
  O2     O2        0.628585575484329    0.890147430931938    0.111210988428263  0.0000
  O2     O2        0.882122245836751    0.176288855984763    0.105023316430538  0.0000
  O2     O2        0.494760792202620    0.976753313626240    0.014162434429760  0.0000
  O2     O2        0.996750130556425    0.058708049455509    0.965586837450137  0.0000
  O3     O3        0.128072793394544    0.507934051212227    0.288374408879973  0.0000
  O2     O2        0.360863964627534    0.535749172177620    0.302753559346550  0.0000
  O2     O2        0.860378971350892    0.478698605772211    0.680090196943264  0.0000
  O3     O3        0.625457833031330    0.506516033549753    0.698711116738707  0.0000
  O3     O3        0.255889900374116    0.286404701511680    0.328112684388280  0.0000
  O2     O2        0.238864378803243    0.744450283764844    0.314920653692985  0.0000
  O2     O2        0.738548183117048    0.272331527910322    0.670907252267945  0.0000
  O3     O3        0.753114653452120    0.722760497311866    0.651672342034677  0.0000
  O1     O1        0.156708705784863    0.222015568209953    0.113686185336883  0.0000
  O2     O2        0.338600497930933    0.777584917339355    0.122579153380958  0.0000
  O2     O2        0.832347696674149    0.252256682325839    0.868596685002773  0.0000
  O3     O3        0.655159300608213    0.798742178780631    0.864748917486963  0.0000
  O2     O2        0.850060231698279    0.741689509371844    0.850653699634127  0.0000
  O3     O3        0.639217740745660    0.256367253359260    0.868230425093908  0.0000
  O2     O2        0.139606035792470    0.758343019965382    0.118443455540711  0.0000
  O2     O2        0.338897939415405    0.296605505096388    0.117477960699186  0.0000
  O3     O3        0.626185069925918    0.555216973476823    0.035028900753001  0.0000
  O2     O2        0.869404647596066    0.505177084489840    0.035344696104421  0.0000
  O2     O2        0.369356817863058    0.537780097522403    0.940786824038446  0.0000
  O3     O3        0.126172346483669    0.499011796046092    0.947624210425616  0.0000
  O3     O3        0.744928809698819    0.310487743471397    0.075770317847968  0.0000
  O2     O2        0.756451012645419    0.733583780205733    0.051619386117616  0.0000
  O3     O3        0.261644285324571    0.297062218432881    0.903539313992251  0.0000
  O2     O2        0.240615494825226    0.723816252102638    0.926945527390456  0.0000
