data_c01294.vasp
_audit_creation_method             Generated by GULP
_audit_author_name                 Salvador R. G. Balestra
_symmetry_space_group_name_H-M     'P 1             '
_symmetry_Int_Tables_number        1

loop_
_symmetry_equiv_pos_site_id
_symmetry_equiv_pos_as_xyz
_cell_length_a                       17.1200
_cell_length_b                        7.6334
_cell_length_c                       10.2501
_cell_angle_alpha                   90.2783
_cell_angle_beta                    90.9266
_cell_angle_gamma                   89.4583

loop_
_atom_site_label
_atom_site_type_symbol
_atom_site_fract_x
_atom_site_fract_y
_atom_site_fract_z
_atom_site_charge
  Ge     Ge        0.160189999999943    0.293909999999983    0.273440000000051  0.0000
  Ge     Ge        0.834066912560057    0.679789915831550    0.693842823846902  0.0000
  Ge     Ge        0.846369533505111    0.675817680021752    0.012143113922961  0.0000
  Ge     Ge        0.159082448828138    0.285319382906724    0.957708675821694  0.0000
  Si     Si        0.042533498019555    0.013279278133590    0.355052702418610  0.0000
  Si     Si        0.445186168346540    0.016777978304744    0.347058864004199  0.0000
  Si     Si        0.936809436090831    0.981379687517954    0.602028461829684  0.0000
  Si     Si        0.535060939593687    0.007173600998500    0.618084017629170  0.0000
  Si     Si        0.551532679689969    0.997755185987313    0.098569725983979  0.0000
  Si     Si        0.942944870667440    0.994933021984128    0.097057364039266  0.0000
  Si     Si        0.433421880781331    0.011943743102162    0.866037827510151  0.0000
  Si     Si        0.047878005092388    0.000509029377016    0.851199559162954  0.0000
  Si     Si        0.327784064490950    0.731329868252116    0.266414588784072  0.0000
  Si     Si        0.821658549053132    0.269831666648828    0.700966872304273  0.0000
  Si     Si        0.653041263094153    0.709425338684973    0.708416517054562  0.0000
  Si     Si        0.641793999193793    0.307626176563930    0.707662052096079  0.0000
  Si     Si        0.146598599289258    0.707588908288515    0.264758479749154  0.0000
  Si     Si        0.340165011374257    0.331369103349042    0.272375118371414  0.0000
  Si     Si        0.645925321985969    0.311494100966376    0.011002651244701  0.0000
  Si     Si        0.338761777628558    0.330893722064284    0.962464924114056  0.0000
  Si     Si        0.143273201697561    0.693223901497712    0.963258144942894  0.0000
  Si     Si        0.324579225403995    0.724915700966416    0.962297900284549  0.0000
  Si     Si        0.664203127442029    0.705406900192373    0.016955175390064  0.0000
  Si     Si        0.826242118609526    0.271880511411265    0.007132015588328  0.0000
  O3     O3        0.103585053573251    0.168153505459633    0.372904574204902  0.0000
  O2     O2        0.376674203789226    0.873003153161388    0.348479374511304  0.0000
  O2     O2        0.867175384145120    0.123730982135957    0.618576295613440  0.0000
  O2     O2        0.592458560235408    0.842467692000559    0.641131596246538  0.0000
  O3     O3        0.897356791453433    0.793721974720363    0.597504429229557  0.0000
  O2     O2        0.582655841722496    0.187805298467046    0.625298983570591  0.0000
  O2     O2        0.090812522995492    0.830072025483135    0.351216654101660  0.0000
  O2     O2        0.407078519265037    0.210771391614711    0.338931500651324  0.0000
  O2     O2        0.980640528498854    0.013991478535725    0.468862674784427  0.0000
  O2     O2        0.496841776095075    0.994707345095017    0.476057022915669  0.0000
  O2     O2        0.993853105029079    0.046091331233511    0.222287877617872  0.0000
  O2     O2        0.500625633444913    0.981988259090006    0.225788295161395  0.0000
  O2     O2        0.000246104721246    0.998239972985347    0.717377385932891  0.0000
  O2     O2        0.465654333258769    0.006050428766555    0.721114514439205  0.0000
  O2     O2        0.590768998749522    0.189470792641463    0.096391025240882  0.0000
  O3     O3        0.915179651275941    0.795605315323830    0.099020455229473  0.0000
  O2     O2        0.403320703980672    0.207886832676448    0.896411322586052  0.0000
  O2     O2        0.088287634114365    0.810268029358501    0.870058001209824  0.0000
  O2     O2        0.364085755349177    0.871060218390404    0.874101856594807  0.0000
  O3     O3        0.112215740884089    0.149522674244484    0.848669734713398  0.0000
  O2     O2        0.617734705869234    0.847786334205628    0.101329426333617  0.0000
  O2     O2        0.865069386895115    0.116769580997738    0.091414864709795  0.0000
  O2     O2        0.500245227823411    0.959632077216706    0.969613480738695  0.0000
  O2     O2        0.991889393493847    0.045945825975521    0.970867505594723  0.0000
  O3     O3        0.126588303277399    0.507552747000823    0.285154017789791  0.0000
  O2     O2        0.360046445612406    0.536025793010485    0.297593035816226  0.0000
  O3     O3        0.854335437977494    0.459767031749062    0.671749267621416  0.0000
  O2     O2        0.621895534415059    0.511849051340873    0.684678519986907  0.0000
  O3     O3        0.256292906994629    0.288027551947323    0.328692518355111  0.0000
  O2     O2        0.236960508039084    0.744664739032702    0.304818084357353  0.0000
  O2     O2        0.729721523355870    0.265712596513827    0.662289480231598  0.0000
  O3     O3        0.738158921588450    0.725460433455827    0.648853972961185  0.0000
  O1     O1        0.154033057691008    0.218276324671490    0.115988745543153  0.0000
  O2     O2        0.335797770599123    0.776425052772877    0.113809234822249  0.0000
  O2     O2        0.830958824747078    0.226461696957880    0.853814195302842  0.0000
  O2     O2        0.663484979831991    0.749272297058567    0.862745859838324  0.0000
  O1     O1        0.852842068013726    0.736943334412623    0.852688200140006  0.0000
  O2     O2        0.632206361285689    0.260681109525591    0.859673747477669  0.0000
  O2     O2        0.132656131591760    0.757616452581489    0.112639006246597  0.0000
  O2     O2        0.334472298650764    0.295089069210762    0.117239557840745  0.0000
  O2     O2        0.624990535509658    0.514798586148949    0.037623765140190  0.0000
  O3     O3        0.867912113908127    0.455554483410715    0.032441720423708  0.0000
  O2     O2        0.362271072531231    0.532975960611894    0.936347835134825  0.0000
  O3     O3        0.118940494650983    0.494341254735899    0.948187593341581  0.0000
  O2     O2        0.736285768429292    0.281771751481042    0.049970364725731  0.0000
  O3     O3        0.752509546802606    0.707237380722196    0.067257968890196  0.0000
  O3     O3        0.254210448414051    0.291708291888390    0.904218881853262  0.0000
  O2     O2        0.233326503986380    0.718675361401517    0.924045994656495  0.0000
