data_c01213.vasp
_audit_creation_method             Generated by GULP
_audit_author_name                 Salvador R. G. Balestra
_symmetry_space_group_name_H-M     'P 1             '
_symmetry_Int_Tables_number        1

loop_
_symmetry_equiv_pos_site_id
_symmetry_equiv_pos_as_xyz
_cell_length_a                       17.2094
_cell_length_b                        7.6365
_cell_length_c                       10.1843
_cell_angle_alpha                   89.7470
_cell_angle_beta                    90.0714
_cell_angle_gamma                   89.6416

loop_
_atom_site_label
_atom_site_type_symbol
_atom_site_fract_x
_atom_site_fract_y
_atom_site_fract_z
_atom_site_charge
  Ge     Ge        0.160189999999943    0.293909999999983    0.273440000000051  0.0000
  Ge     Ge        0.330765267281725    0.746657669567392    0.272977009314933  0.0000
  Ge     Ge        0.332390964008658    0.731461437730654    0.954100803252417  0.0000
  Ge     Ge        0.663057673366865    0.721739667326012    0.021490450405298  0.0000
  Si     Si        0.041097091317501    0.007530354697663    0.351910587075431  0.0000
  Si     Si        0.447262490227064    0.034630230027019    0.356157154641539  0.0000
  Si     Si        0.945545849465542    0.012040344621492    0.612982141703344  0.0000
  Si     Si        0.550918309480333    0.034627961023139    0.609713741422125  0.0000
  Si     Si        0.550341767186887    0.008221884371852    0.101618578675769  0.0000
  Si     Si        0.941528409732661    0.008976127979358    0.093639296924235  0.0000
  Si     Si        0.444030034501199    0.017707363282814    0.858279097964763  0.0000
  Si     Si        0.054854045123657    0.006387434851113    0.855384171249744  0.0000
  Si     Si        0.834365953645621    0.309850845452849    0.705119865353837  0.0000
  Si     Si        0.661504011745054    0.736269109817408    0.709271395882436  0.0000
  Si     Si        0.838796371114515    0.710600669455353    0.711246032627773  0.0000
  Si     Si        0.655788651876513    0.330490541185764    0.702502937919714  0.0000
  Si     Si        0.148541547507450    0.706159978796647    0.267416103858150  0.0000
  Si     Si        0.340228327445117    0.339234148857375    0.280646653775753  0.0000
  Si     Si        0.649308057355063    0.319579259753280    0.007216401533706  0.0000
  Si     Si        0.843779301974645    0.693774197566536    0.020844151899070  0.0000
  Si     Si        0.343768911554208    0.329787668463608    0.968500482447181  0.0000
  Si     Si        0.148801899934728    0.692262346184277    0.959427792372886  0.0000
  Si     Si        0.164600103419489    0.289816326956349    0.960906443087005  0.0000
  Si     Si        0.829865819346525    0.299069172928222    0.011576563935636  0.0000
  O3     O3        0.102255796996507    0.162705864401854    0.368495257808675  0.0000
  O3     O3        0.384547976554302    0.882798735362141    0.371587017818205  0.0000
  O2     O2        0.888931663943661    0.180278099857210    0.623072399366940  0.0000
  O2     O2        0.606357335740531    0.865055479539640    0.625484598655118  0.0000
  O2     O2        0.897894596827120    0.834919424265714    0.635920027309153  0.0000
  O2     O2        0.600812911292718    0.212606277981361    0.612432162420744  0.0000
  O2     O2        0.086495708384509    0.822738245410551    0.346600890645896  0.0000
  O2     O2        0.404202816379355    0.222595058748978    0.356558025688583  0.0000
  O2     O2        0.978973704326149    0.005761100003771    0.467551099552336  0.0000
  O2     O2        0.511606059812112    0.024402746386917    0.468380641267107  0.0000
  O2     O2        0.995091039586604    0.040842852287987    0.217412294861902  0.0000
  O2     O2        0.488616919956717    0.011371006004552    0.216562174383764  0.0000
  O2     O2        0.018056961639307    0.023505531399327    0.711709624307226  0.0000
  O2     O2        0.483379731594471    0.042802636088701    0.717637886141213  0.0000
  O2     O2        0.594597426640176    0.193052452688786    0.090688656621617  0.0000
  O2     O2        0.906175142372780    0.813186085048274    0.095862942334314  0.0000
  O2     O2        0.405927807151404    0.199959947777192    0.905061887466932  0.0000
  O2     O2        0.089006978230572    0.810402922235637    0.874712437280021  0.0000
  O3     O3        0.379901999913848    0.869487866808884    0.847578050756780  0.0000
  O2     O2        0.121595151685400    0.152630469183127    0.866830862163046  0.0000
  O3     O3        0.613171121700459    0.857484774590249    0.125166700873654  0.0000
  O2     O2        0.871742042994175    0.150841443533774    0.097788483284235  0.0000
  O2     O2        0.507757130531558    0.957261354052629    0.965581685441102  0.0000
  O2     O2        0.988947162978559    0.045297078236163    0.961720610058249  0.0000
  O3     O3        0.146343492110945    0.509434529027539    0.318818535292061  0.0000
  O3     O3        0.342950576683468    0.535136901335372    0.332106381509703  0.0000
  O2     O2        0.861273265447187    0.509350069280543    0.680193741152920  0.0000
  O2     O2        0.634741610722612    0.535599348711623    0.686179385031141  0.0000
  O3     O3        0.257261095726986    0.249182332453250    0.301294556089306  0.0000
  O3     O3        0.232542865679571    0.792513249731996    0.284122685067701  0.0000
  O2     O2        0.744706988082019    0.292799969149825    0.660673719145633  0.0000
  O2     O2        0.751219147989561    0.753672693234236    0.663236297786336  0.0000
  O3     O3        0.139700079917088    0.257267817891212    0.109928643215399  0.0000
  O1     O1        0.358519571652762    0.773077683613234    0.112811295104258  0.0000
  O2     O2        0.840495296274250    0.258093370030588    0.857857558292719  0.0000
  O3     O3        0.656123585520141    0.788954725667235    0.860126018627529  0.0000
  O2     O2        0.844151427090549    0.743378057092158    0.866645370278674  0.0000
  O2     O2        0.641887615858171    0.273293686434141    0.853133010827456  0.0000
  O2     O2        0.127060549103173    0.707311132242357    0.112610855432043  0.0000
  O2     O2        0.357094026919500    0.349720217907048    0.124233291416797  0.0000
  O3     O3        0.623399115545889    0.515625165545837    0.034448778082315  0.0000
  O2     O2        0.866244397429318    0.489386016516240    0.042700139914663  0.0000
  O3     O3        0.353951232670969    0.519403501105949    0.906580342116590  0.0000
  O2     O2        0.143153715635692    0.488811407503140    0.916956304334153  0.0000
  O2     O2        0.739296180909050    0.297502029882817    0.049743742011262  0.0000
  O3     O3        0.758049987611969    0.725553629682437    0.074185679838875  0.0000
  O2     O2        0.256838313544235    0.257346528393616    0.944786605705578  0.0000
  O3     O3        0.234024021422683    0.764499318912634    0.936285169476696  0.0000
