data_c01246.vasp
_audit_creation_method             Generated by GULP
_audit_author_name                 Salvador R. G. Balestra
_symmetry_space_group_name_H-M     'P 1             '
_symmetry_Int_Tables_number        1

loop_
_symmetry_equiv_pos_site_id
_symmetry_equiv_pos_as_xyz
_cell_length_a                       17.0604
_cell_length_b                        7.6125
_cell_length_c                       10.3065
_cell_angle_alpha                   90.5626
_cell_angle_beta                    90.5547
_cell_angle_gamma                   90.5943

loop_
_atom_site_label
_atom_site_type_symbol
_atom_site_fract_x
_atom_site_fract_y
_atom_site_fract_z
_atom_site_charge
  Ge     Ge        0.160189999999943    0.293909999999983    0.273440000000051  0.0000
  Ge     Ge        0.851986800680959    0.292521281192549    0.694994472844980  0.0000
  Ge     Ge        0.834950406045157    0.725632170408660    0.002916000171999  0.0000
  Ge     Ge        0.859596753208268    0.313483275483688    0.007105670237989  0.0000
  Si     Si        0.057425024997003    0.985365730239481    0.358710054495490  0.0000
  Si     Si        0.461383087442366    0.982362094740806    0.339623508400538  0.0000
  Si     Si        0.953941939406564    0.983054177825420    0.607041856875052  0.0000
  Si     Si        0.549947682548762    0.967697536461409    0.609893091792477  0.0000
  Si     Si        0.560552996685686    0.974628900685120    0.084634076368790  0.0000
  Si     Si        0.949249641600618    0.001448615905457    0.110218502588188  0.0000
  Si     Si        0.441073293099616    0.972965592863598    0.852180681452495  0.0000
  Si     Si        0.053760863794764    0.968729041785812    0.866254651628489  0.0000
  Si     Si        0.354098548826437    0.674172272361961    0.253089562562987  0.0000
  Si     Si        0.654383435816305    0.661844805249270    0.696524111664794  0.0000
  Si     Si        0.833462846374714    0.709446376411032    0.697349740197011  0.0000
  Si     Si        0.671455203083610    0.262837187882788    0.695054180664242  0.0000
  Si     Si        0.173215611083261    0.703783500481574    0.262536009715358  0.0000
  Si     Si        0.344394708843069    0.269914184977107    0.260074091546104  0.0000
  Si     Si        0.677234052905751    0.266059278968539    0.002199489802952  0.0000
  Si     Si        0.333309824049915    0.260523525883433    0.956222893838008  0.0000
  Si     Si        0.166332765407717    0.684274108137788    0.959638731227826  0.0000
  Si     Si        0.346975132200007    0.659629373602523    0.951349210002931  0.0000
  Si     Si        0.152051800354169    0.282907922504711    0.965633145196262  0.0000
  Si     Si        0.652843892288503    0.656124214534480    0.000805801535764  0.0000
  O3     O3        0.096106460800573    0.176983914806126    0.368032846711807  0.0000
  O2     O2        0.413785639910214    0.798514673328060    0.332659201811978  0.0000
  O3     O3        0.918096524114953    0.175954059247820    0.602179393519463  0.0000
  O2     O2        0.592392803204309    0.779902336926372    0.619341925441901  0.0000
  O2     O2        0.881828944848442    0.843566292631706    0.607581232784173  0.0000
  O2     O2        0.613495836217183    0.121651910116851    0.630321552467859  0.0000
  O2     O2        0.129299894540787    0.850106604334813    0.346123680386745  0.0000
  O2     O2        0.401158535831093    0.143840368271176    0.340168155756163  0.0000
  O2     O2        0.006623180667102    0.942971080395993    0.483217837663957  0.0000
  O2     O2        0.512460320988016    0.986928749225044    0.469152720140908  0.0000
  O2     O2        0.000870859969316    0.961693357637742    0.235045292155156  0.0000
  O2     O2        0.519565533323286    0.004611644074476    0.220504806894391  0.0000
  O2     O2        0.009963359358852    0.954876577846613    0.730421661178536  0.0000
  O2     O2        0.480954751180744    0.985333188046078    0.713529284908770  0.0000
  O2     O2        0.632916290309571    0.110142055362815    0.075120694054595  0.0000
  O3     O3        0.869929376101967    0.886797263441672    0.106420054941074  0.0000
  O2     O2        0.374708793468575    0.121044358565309    0.863233663878661  0.0000
  O2     O2        0.119072194045260    0.817334225330084    0.870022138576129  0.0000
  O2     O2        0.402256208527702    0.779440237686478    0.863058689185996  0.0000
  O2     O2        0.093450260463084    0.161993506806787    0.879501106981220  0.0000
  O2     O2        0.590626376336417    0.774637334296032    0.077437504899627  0.0000
  O3     O3        0.926735372275167    0.203836333506889    0.103573153769232  0.0000
  O2     O2        0.503003036287564    0.014346990656058    0.965644946135326  0.0000
  O2     O2        0.993112240099588    0.931873714919119    0.980753515314408  0.0000
  O3     O3        0.141102491873345    0.513026390567717    0.297253218184854  0.0000
  O2     O2        0.373024844457344    0.471438794958524    0.280933766768606  0.0000
  O3     O3        0.869312180371580    0.516741095188579    0.689553037897070  0.0000
  O2     O2        0.635488200663686    0.456258962934931    0.670849286343843  0.0000
  O3     O3        0.256622930872738    0.250141696499468    0.310382255571336  0.0000
  O2     O2        0.265666241442861    0.715361815106193    0.296346975587845  0.0000
  O3     O3        0.757696843493492    0.251400712573773    0.637081856727349  0.0000
  O2     O2        0.742583907654894    0.703069714377277    0.649131975922995  0.0000
  O3     O3        0.140351175421724    0.233318630954226    0.114250541889392  0.0000
  O2     O2        0.363315573039734    0.713800226345226    0.100678223543152  0.0000
  O1     O1        0.867172148953239    0.231768864866270    0.852153047553712  0.0000
  O2     O2        0.647870989451503    0.706462785602030    0.848918607404132  0.0000
  O3     O3        0.835950723517528    0.786560898811770    0.842402062954918  0.0000
  O2     O2        0.683725485167024    0.227618391221920    0.848253024789259  0.0000
  O2     O2        0.160391653308255    0.741093395161008    0.109900756569133  0.0000
  O2     O2        0.346148043456707    0.217032898487439    0.107621830768947  0.0000
  O2     O2        0.631487141917510    0.450508504658215    0.022450679579152  0.0000
  O1     O1        0.883188762620877    0.530665047252226    0.018442291642779  0.0000
  O2     O2        0.366850759482227    0.455466818644017    0.926783644100558  0.0000
  O2     O2        0.131379529843209    0.487097759485531    0.941916145217576  0.0000
  O3     O3        0.764081314829727    0.280701689981364    0.058924966613175  0.0000
  O3     O3        0.739587013243174    0.690696600974223    0.051877207416913  0.0000
  O2     O2        0.241230426424130    0.249772448542502    0.923731176592377  0.0000
  O2     O2        0.256357278855842    0.691586471154732    0.915426736465097  0.0000
