data_c01276.vasp
_audit_creation_method             Generated by GULP
_audit_author_name                 Salvador R. G. Balestra
_symmetry_space_group_name_H-M     'P 1             '
_symmetry_Int_Tables_number        1

loop_
_symmetry_equiv_pos_site_id
_symmetry_equiv_pos_as_xyz
_cell_length_a                       17.1067
_cell_length_b                        7.6479
_cell_length_c                       10.2480
_cell_angle_alpha                   91.0941
_cell_angle_beta                    90.0003
_cell_angle_gamma                   90.0003

loop_
_atom_site_label
_atom_site_type_symbol
_atom_site_fract_x
_atom_site_fract_y
_atom_site_fract_z
_atom_site_charge
  Ge     Ge        0.160189999999943    0.293909999999983    0.273440000000051  0.0000
  Ge     Ge        0.660186443765655    0.635622982741307    0.681317050173511  0.0000
  Ge     Ge        0.836166471295374    0.678919709705785    0.004969220858708  0.0000
  Ge     Ge        0.336169584337186    0.250636125662556    0.949784400926933  0.0000
  Si     Si        0.055678428716614    0.987527952361324    0.350225945798895  0.0000
  Si     Si        0.457153622039841    0.973297126860722    0.347742779504174  0.0000
  Si     Si        0.957149472611895    0.956252156268542    0.607013509700678  0.0000
  Si     Si        0.555680393422938    0.942010041852630    0.604531959327662  0.0000
  Si     Si        0.558469942652802    0.966255406943511    0.094478848478140  0.0000
  Si     Si        0.947248603941900    0.968655513349803    0.099229499684542  0.0000
  Si     Si        0.447251151493865    0.960899389094705    0.855526999841848  0.0000
  Si     Si        0.058466015697752    0.963279531260161    0.860278863388285  0.0000
  Si     Si        0.352098428225425    0.668035730248461    0.254291826984065  0.0000
  Si     Si        0.852099911831214    0.261519016866904    0.700465325084410  0.0000
  Si     Si        0.841941463411656    0.665900728766551    0.693085337428833  0.0000
  Si     Si        0.671568260561646    0.230098917075348    0.692932392931209  0.0000
  Si     Si        0.171565705702104    0.699437840128989    0.261826785753953  0.0000
  Si     Si        0.341945960981164    0.263648045370899    0.261667942799624  0.0000
  Si     Si        0.669603156704689    0.251934182621267    0.997370872490754  0.0000
  Si     Si        0.169598437479202    0.677602110099873    0.957388085916249  0.0000
  Si     Si        0.351242275338369    0.652850607061068    0.952226139732456  0.0000
  Si     Si        0.154259778885762    0.279973187556931    0.959835256676931  0.0000
  Si     Si        0.654258547517882    0.649559371952890    0.994921036578252  0.0000
  Si     Si        0.851245802127789    0.276708593614230    0.002532166440394  0.0000
  O3     O3        0.094696344922361    0.176284713273400    0.364225233927481  0.0000
  O2     O2        0.409076626976440    0.791878605819928    0.338766153712568  0.0000
  O2     O2        0.909078672995942    0.137676848625527    0.615993424253084  0.0000
  O3     O3        0.594692484137110    0.753249070231303    0.590532443543194  0.0000
  O2     O2        0.900030875054840    0.790101674350398    0.613970462314524  0.0000
  O2     O2        0.626999480600194    0.080365112483342    0.611199704673461  0.0000
  O2     O2        0.126994146983220    0.849164096016042    0.343561318969585  0.0000
  O2     O2        0.400040658834838    0.139456771856709    0.340780576559875  0.0000
  O2     O2        0.998866369757948    0.945476302920791    0.468178673064026  0.0000
  O2     O2        0.498869878979741    0.984071519918412    0.486579512856160  0.0000
  O2     O2        0.006170149356092    0.973211867786596    0.218082762702593  0.0000
  O2     O2        0.523787746206094    0.979675974884208    0.238508854330176  0.0000
  O2     O2        0.023781490840027    0.949857911671561    0.716250290735632  0.0000
  O2     O2        0.506175076168125    0.956327795026080    0.736676818036555  0.0000
  O2     O2        0.626378517681124    0.111874159179826    0.086172364564373  0.0000
  O3     O3        0.882733265176578    0.819992880105861    0.111021040794110  0.0000
  O3     O3        0.382744965416531    0.109583120306581    0.843728683186102  0.0000
  O2     O2        0.126372838644416    0.817656818819804    0.868583698573383  0.0000
  O2     O2        0.404435193408756    0.773413465523535    0.862205923687978  0.0000
  O2     O2        0.091432899063989    0.158631932049198    0.883983860053439  0.0000
  O2     O2        0.591432352168209    0.770901413566065    0.070771652293817  0.0000
  O2     O2        0.904445341133300    0.156151891458926    0.092546718479750  0.0000
  O2     O2        0.492107781443401    0.010836403119818    0.989767880331844  0.0000
  O2     O2        0.992104334730188    0.918701082233140    0.964992202819802  0.0000
  O3     O3        0.137345830728360    0.511920318406033    0.295153127145207  0.0000
  O2     O2        0.372689414500220    0.464490921785097    0.272999308575685  0.0000
  O2     O2        0.872690692591549    0.465064020638095    0.681755470216786  0.0000
  O3     O3        0.637342826093892    0.417610964218431    0.659608610119217  0.0000
  O3     O3        0.255553689155709    0.256139693424477    0.320727545616749  0.0000
  O2     O2        0.263245645307260    0.704324802239423    0.299305178575930  0.0000
  O2     O2        0.763247092404165    0.225226892234833    0.655450641174973  0.0000
  O3     O3        0.755549178435476    0.673393274657414    0.634026135835736  0.0000
  O3     O3        0.151624557371019    0.233737653491755    0.111271804127263  0.0000
  O2     O2        0.362522265267159    0.715399736073590    0.102697908246591  0.0000
  O2     O2        0.862523371032396    0.214160507166701    0.852060302438207  0.0000
  O3     O3        0.651624229383950    0.695796559883356    0.843485136559990  0.0000
  O3     O3        0.840122560438743    0.731524403489040    0.842565826955206  0.0000
  O2     O2        0.662496085350114    0.192265415795834    0.846554054520073  0.0000
  O2     O2        0.162488955049068    0.737269645748143    0.108205089433542  0.0000
  O3     O3        0.340127896929655    0.198024796381082    0.112186726805374  0.0000
  O2     O2        0.631938542162207    0.444898493214687    0.014992731812587  0.0000
  O3     O3        0.876736334764356    0.474204083815086    0.024244190521447  0.0000
  O3     O3        0.376735629748002    0.455357749984517    0.930513863201494  0.0000
  O2     O2        0.131938162817789    0.484632175933350    0.939762890318722  0.0000
  O2     O2        0.759986757653954    0.257524940745470    0.040389934774846  0.0000
  O3     O3        0.739610575281321    0.682469653946666    0.052248727638821  0.0000
  O3     O3        0.239611916406009    0.247063358662911    0.902508485575988  0.0000
  O2     O2        0.259982458806844    0.672020975332481    0.914371586414650  0.0000
