data_c01210.vasp
_audit_creation_method             Generated by GULP
_audit_author_name                 Salvador R. G. Balestra
_symmetry_space_group_name_H-M     'P 1             '
_symmetry_Int_Tables_number        1

loop_
_symmetry_equiv_pos_site_id
_symmetry_equiv_pos_as_xyz
_cell_length_a                       17.0652
_cell_length_b                        7.6088
_cell_length_c                       10.3147
_cell_angle_alpha                   89.4501
_cell_angle_beta                    89.7744
_cell_angle_gamma                   89.3919

loop_
_atom_site_label
_atom_site_type_symbol
_atom_site_fract_x
_atom_site_fract_y
_atom_site_fract_z
_atom_site_charge
  Ge     Ge        0.160189999999943    0.293909999999983    0.273440000000051  0.0000
  Ge     Ge        0.362943682288019    0.656710205635577    0.266359623284540  0.0000
  Ge     Ge        0.342318913939281    0.247808670163037    0.960816817194637  0.0000
  Ge     Ge        0.659197479524835    0.643453114179811    0.008585339830439  0.0000
  Si     Si        0.057234013560313    0.981671995059686    0.357164362368184  0.0000
  Si     Si        0.464823180718883    0.964901127686877    0.357279051563874  0.0000
  Si     Si        0.965432212909620    0.969196597576976    0.621838566601779  0.0000
  Si     Si        0.566426626196907    0.967640184660408    0.611775398111396  0.0000
  Si     Si        0.561508815492886    0.961570019716534    0.100079609380622  0.0000
  Si     Si        0.954386359692305    0.958335859118874    0.105025042101606  0.0000
  Si     Si        0.454190433398266    0.964224038625704    0.857555845214199  0.0000
  Si     Si        0.070556905802524    0.979478430181991    0.870642586905544  0.0000
  Si     Si        0.860470346456060    0.276177088796667    0.705838186713744  0.0000
  Si     Si        0.668779980647351    0.659608968856996    0.699749116839670  0.0000
  Si     Si        0.848379765855216    0.679559086732364    0.712108541229231  0.0000
  Si     Si        0.680211554386977    0.254633378549039    0.699414529765876  0.0000
  Si     Si        0.179578823498844    0.700320607229772    0.270767034238234  0.0000
  Si     Si        0.343106013201290    0.244144120980219    0.268493752732962  0.0000
  Si     Si        0.676783001671319    0.238831222872160    0.002467948532729  0.0000
  Si     Si        0.842822099038400    0.670569651721236    0.016322328162339  0.0000
  Si     Si        0.183239476956887    0.691736275945424    0.965947106461058  0.0000
  Si     Si        0.364550132583671    0.651477429836879    0.962246126852199  0.0000
  Si     Si        0.160313762754917    0.297076647890530    0.963355381353307  0.0000
  Si     Si        0.857752453350518    0.272826753372738    0.007438406069620  0.0000
  O3     O3        0.090939466393074    0.176362771219888    0.357874288091133  0.0000
  O3     O3        0.429570940084033    0.771282603099545    0.356265564376632  0.0000
  O2     O2        0.920246276795899    0.157135786093712    0.623320868412029  0.0000
  O2     O2        0.612707817406858    0.781297824192823    0.610194418312554  0.0000
  O2     O2        0.902630474159557    0.814382779310436    0.635372517880805  0.0000
  O2     O2        0.628971926694313    0.125080185934371    0.613721559588745  0.0000
  O2     O2        0.132203242676294    0.851901479323108    0.345260479292836  0.0000
  O2     O2        0.392904544778023    0.103854153300803    0.353273397967490  0.0000
  O2     O2        0.009646110237042    0.943693927080086    0.487419345021301  0.0000
  O2     O2        0.515121534085118    0.991577666392418    0.484959488147050  0.0000
  O2     O2        0.998894771019551    0.947202611693235    0.239388630907380  0.0000
  O2     O2        0.522252453075315    0.001922260321338    0.236675193302448  0.0000
  O2     O2        0.029852254130327    0.956390496579431    0.733528961738536  0.0000
  O2     O2        0.508761859910263    0.978388647807593    0.733508165533586  0.0000
  O2     O2        0.638664389820823    0.080875659940114    0.083203751439139  0.0000
  O2     O2        0.890545030112642    0.804845727761118    0.103319599607535  0.0000
  O3     O3        0.384614360322617    0.105064418017703    0.852750554611590  0.0000
  O2     O2        0.143899260671560    0.843934004369105    0.878551596454848  0.0000
  O2     O2        0.419309463231985    0.767705728006926    0.867361966356840  0.0000
  O2     O2        0.098821871751447    0.180446358126391    0.882891963867805  0.0000
  O3     O3        0.589408028455497    0.760535467471303    0.092883145860921  0.0000
  O2     O2        0.912778104840873    0.149111381305331    0.094818838367126  0.0000
  O2     O2        0.501528121579649    0.015911675784724    0.986750251590337  0.0000
  O2     O2        0.012556927621526    0.925571474257700    0.986011045379380  0.0000
  O3     O3        0.140008773334643    0.513830188516997    0.296131192753961  0.0000
  O3     O3        0.381931043436854    0.434649793743486    0.276433999680696  0.0000
  O2     O2        0.879045325773595    0.481633378753879    0.684393937905428  0.0000
  O2     O2        0.650916511288859    0.454620290139192    0.675062469915523  0.0000
  O3     O3        0.255225701561661    0.253789791029307    0.323575382094455  0.0000
  O3     O3        0.268539856642372    0.697372232970384    0.319352760533681  0.0000
  O2     O2        0.771759605640675    0.236708899144612    0.661541355633852  0.0000
  O2     O2        0.759089612154527    0.699526294877822    0.663429720994956  0.0000
  O3     O3        0.153516425678888    0.238569026285831    0.112392095203286  0.0000
  O3     O3        0.375489071743607    0.722800924479811    0.106830714284024  0.0000
  O2     O2        0.871806346426096    0.225695623990097    0.856940034151201  0.0000
  O3     O3        0.651644909857534    0.705775643433130    0.847992571491828  0.0000
  O2     O2        0.849049349496352    0.722226665026423    0.864504026247168  0.0000
  O2     O2        0.669697927442199    0.201695656340966    0.849413948381340  0.0000
  O2     O2        0.181352448822782    0.743399713099375    0.116691799852024  0.0000
  O3     O3        0.341131822759836    0.179357643333363    0.120336728404292  0.0000
  O3     O3        0.636879799844856    0.424667764157171    0.032030689918698  0.0000
  O2     O2        0.878784925499890    0.474357155974843    0.036214665088282  0.0000
  O3     O3        0.388488051061713    0.449488392217818    0.951435724888493  0.0000
  O2     O2        0.139448518320495    0.505535952821049    0.947545704422467  0.0000
  O2     O2        0.767418654181742    0.243035742430246    0.043693020972207  0.0000
  O3     O3        0.753415032738496    0.677955902398521    0.060803562228317  0.0000
  O3     O3        0.246722964464777    0.265842078741031    0.909489778313063  0.0000
  O2     O2        0.273286764539989    0.672038937711815    0.921417976970854  0.0000
