data_c01232.vasp
_audit_creation_method             Generated by GULP
_audit_author_name                 Salvador R. G. Balestra
_symmetry_space_group_name_H-M     'P 1             '
_symmetry_Int_Tables_number        1

loop_
_symmetry_equiv_pos_site_id
_symmetry_equiv_pos_as_xyz
_cell_length_a                       17.1547
_cell_length_b                        7.6419
_cell_length_c                       10.2588
_cell_angle_alpha                   88.7278
_cell_angle_beta                    89.9766
_cell_angle_gamma                   89.6298

loop_
_atom_site_label
_atom_site_type_symbol
_atom_site_fract_x
_atom_site_fract_y
_atom_site_fract_z
_atom_site_charge
  Ge     Ge        0.160189999999943    0.293909999999983    0.273440000000051  0.0000
  Ge     Ge        0.856020018016512    0.303809525628471    0.695215212368119  0.0000
  Ge     Ge        0.667227161398733    0.280284389512043    0.698131963482215  0.0000
  Ge     Ge        0.156837119941540    0.313071061450231    0.955059546482114  0.0000
  Si     Si        0.055516626111581    0.984764657756802    0.355969017916330  0.0000
  Si     Si        0.457788254320218    0.970735658009056    0.359512107868956  0.0000
  Si     Si        0.958597947830805    0.992977961149987    0.612214117202819  0.0000
  Si     Si        0.551535974479794    0.992933064739261    0.620940773085683  0.0000
  Si     Si        0.567318023342926    0.973258581805317    0.118232377997494  0.0000
  Si     Si        0.950534144630144    0.975560014721419    0.102746373319067  0.0000
  Si     Si        0.452026912870933    0.989130654904557    0.880343613039545  0.0000
  Si     Si        0.062633408439847    0.999978794969835    0.861271208696805  0.0000
  Si     Si        0.353665508858295    0.670881119533343    0.266567907554570  0.0000
  Si     Si        0.659975469002679    0.688770753467837    0.710699693208012  0.0000
  Si     Si        0.841227895689630    0.711211194000323    0.709577425956360  0.0000
  Si     Si        0.173797985902322    0.704704551465804    0.267799469354322  0.0000
  Si     Si        0.340884727266201    0.269821226966711    0.267278106088744  0.0000
  Si     Si        0.672428388301786    0.264535253885378    0.008132203769029  0.0000
  Si     Si        0.841782242952030    0.686350040480286    0.014488214776250  0.0000
  Si     Si        0.337935985142706    0.282260717409812    0.958398730880124  0.0000
  Si     Si        0.174829996730954    0.716218485909617    0.962305796624168  0.0000
  Si     Si        0.355096786744616    0.675049159828727    0.963260874523896  0.0000
  Si     Si        0.662234302431914    0.665053971996323    0.014010762075323  0.0000
  Si     Si        0.853789138596530    0.288571384268191    0.006302168110777  0.0000
  O3     O3        0.093422518496901    0.174260489663466    0.363491368986727  0.0000
  O2     O2        0.411461040778565    0.788902373015252    0.349328042754236  0.0000
  O3     O3        0.924287406868713    0.187874071836914    0.608270530799923  0.0000
  O2     O2        0.606218322718218    0.821038246183769    0.627710212045185  0.0000
  O2     O2        0.884484848217827    0.865975155156576    0.631859687351343  0.0000
  O3     O3        0.607301113374384    0.157671941334560    0.602736359263116  0.0000
  O2     O2        0.127009431849743    0.846316484851973    0.350630423003313  0.0000
  O2     O2        0.400263347334994    0.134048461087874    0.334078573008441  0.0000
  O2     O2        0.002140119631603    0.945093893098203    0.480393055284843  0.0000
  O2     O2        0.490390241533543    0.979478992233404    0.504689801102397  0.0000
  O2     O2        0.000370804105356    0.962491745635621    0.232224978211131  0.0000
  O2     O2        0.530361506449517    0.978765034589027    0.260960649223309  0.0000
  O2     O2        0.021112637993638    0.961311487092170    0.726398898074023  0.0000
  O2     O2        0.504186120408942    0.015374596644864    0.754183114525563  0.0000
  O2     O2        0.630219615251286    0.128230368881025    0.105723871765534  0.0000
  O2     O2        0.888262077873444    0.818106268209624    0.104907451477739  0.0000
  O2     O2        0.387684413838530    0.142104175357773    0.880436373437295  0.0000
  O2     O2        0.138369519452072    0.874335896392068    0.876761886387321  0.0000
  O2     O2        0.410756346115766    0.799777259597530    0.877142507841142  0.0000
  O3     O3        0.091174667576231    0.198275987698523    0.863094182747509  0.0000
  O2     O2        0.607205819596988    0.782920068199355    0.103278210466252  0.0000
  O2     O2        0.907255799107268    0.163727390686836    0.097856696489784  0.0000
  O2     O2        0.501643603535900    0.007933282154821    0.010693360295637  0.0000
  O2     O2        0.004978983973697    0.951190914329592    0.978668181353166  0.0000
  O3     O3        0.140894277540371    0.513356069499180    0.295361646181367  0.0000
  O2     O2        0.372154965298019    0.465989508877705    0.292535067622592  0.0000
  O3     O3        0.875825479207693    0.524206214818063    0.674637150370431  0.0000
  O3     O3        0.635758037613220    0.494103798529286    0.681487691628142  0.0000
  O3     O3        0.254790786572159    0.249281565419775    0.324204273775531  0.0000
  O2     O2        0.264847349028261    0.711021755928104    0.308073256332831  0.0000
  O1     O1        0.762346109152202    0.263153902596413    0.649666646208241  0.0000
  O2     O2        0.750142372161927    0.717293634620071    0.670473497956966  0.0000
  O1     O1        0.146465705614980    0.244154329282573    0.113528508778277  0.0000
  O2     O2        0.366709526801904    0.720549780707519    0.114658657073488  0.0000
  O3     O3        0.868821002308898    0.243001564093722    0.857510804769161  0.0000
  O2     O2        0.650152107299221    0.727004842630212    0.864353819704162  0.0000
  O2     O2        0.849406579499570    0.744455699021846    0.863661564590072  0.0000
  O3     O3        0.660531771482363    0.211966620811163    0.859914473790282  0.0000
  O2     O2        0.166505887200355    0.756095647439353    0.115194481397202  0.0000
  O2     O2        0.333043227661133    0.237392857416520    0.112767766441841  0.0000
  O2     O2        0.639400699002977    0.461139406130157    0.030804134560421  0.0000
  O2     O2        0.876130089936198    0.489940882617426    0.033723669654446  0.0000
  O2     O2        0.377426490601922    0.473509210021718    0.937512060031407  0.0000
  O3     O3        0.134371153329742    0.533134504176501    0.935347806384017  0.0000
  O2     O2        0.763762545365988    0.258485905452985    0.041705702792310  0.0000
  O2     O2        0.751532602962518    0.691644926680547    0.056819444066188  0.0000
  O3     O3        0.251486243825715    0.282117882393510    0.902732208493348  0.0000
  O2     O2        0.265560023442103    0.705554481025037    0.923209922618888  0.0000
