data_c01287.vasp
_audit_creation_method             Generated by GULP
_audit_author_name                 Salvador R. G. Balestra
_symmetry_space_group_name_H-M     'P 1             '
_symmetry_Int_Tables_number        1

loop_
_symmetry_equiv_pos_site_id
_symmetry_equiv_pos_as_xyz
_cell_length_a                       17.1158
_cell_length_b                        7.6087
_cell_length_c                       10.2619
_cell_angle_alpha                   92.0467
_cell_angle_beta                    90.4349
_cell_angle_gamma                   89.5360

loop_
_atom_site_label
_atom_site_type_symbol
_atom_site_fract_x
_atom_site_fract_y
_atom_site_fract_z
_atom_site_charge
  Ge     Ge        0.160189999999943    0.293909999999983    0.273440000000051  0.0000
  Ge     Ge        0.841051197159866    0.678698404296515    0.695971157112718  0.0000
  Ge     Ge        0.643731877747125    0.345761157938045    0.018814111118592  0.0000
  Ge     Ge        0.143647842686556    0.678500381579376    0.957927190615302  0.0000
  Si     Si        0.042003995106227    0.015316858353043    0.355445243995164  0.0000
  Si     Si        0.446155917298333    0.017378236996857    0.353681785985021  0.0000
  Si     Si        0.942010424932591    0.983905387085052    0.607585252374268  0.0000
  Si     Si        0.540798004547877    0.002153344747593    0.618151123341734  0.0000
  Si     Si        0.551339912319361    0.030395495018799    0.109290995976127  0.0000
  Si     Si        0.940141814193516    0.019063210051484    0.097524534364241  0.0000
  Si     Si        0.436699933628405    0.996608400765191    0.870272434988123  0.0000
  Si     Si        0.048893097143729    0.990463953938075    0.854338342198928  0.0000
  Si     Si        0.327390226693790    0.728115101443406    0.261268711566834  0.0000
  Si     Si        0.823658869274293    0.271151915476262    0.711740021331249  0.0000
  Si     Si        0.657871889191324    0.714614235191963    0.697619899975467  0.0000
  Si     Si        0.644373643329561    0.310698535701605    0.709283695933953  0.0000
  Si     Si        0.147411933139308    0.708386740288771    0.265878138893252  0.0000
  Si     Si        0.343001814651153    0.324890820007399    0.269531053387137  0.0000
  Si     Si        0.844580792375007    0.702879499686389    0.005021786223090  0.0000
  Si     Si        0.339110581048283    0.312951234186020    0.964810697254029  0.0000
  Si     Si        0.326003604774330    0.707679303836266    0.955307590683873  0.0000
  Si     Si        0.158873936779963    0.271327999613985    0.965962194345461  0.0000
  Si     Si        0.663939348254722    0.747595914469388    0.003289390742561  0.0000
  Si     Si        0.826179711162286    0.306893410569122    0.018201619376501  0.0000
  O3     O3        0.103557966199379    0.171478126454320    0.372660199609749  0.0000
  O2     O2        0.378957203929984    0.871372340357575    0.338971563136204  0.0000
  O2     O2        0.868639950957050    0.113541999943846    0.636482049488276  0.0000
  O2     O2        0.602786476014283    0.840965496008509    0.614217301911037  0.0000
  O3     O3        0.907904519547463    0.789201671501823    0.605746787509599  0.0000
  O2     O2        0.586117149073563    0.187022408360049    0.624333103769238  0.0000
  O2     O2        0.090684139992378    0.832456803164421    0.354261664283103  0.0000
  O2     O2        0.407210905907968    0.211194196356541    0.346056556706868  0.0000
  O2     O2        0.978876964815406    0.021617497998416    0.469093458568618  0.0000
  O2     O2        0.487481249813884    0.995252327320567    0.490916256205588  0.0000
  O2     O2        0.995641378724905    0.041463500512142    0.221223106662599  0.0000
  O2     O2        0.512158310419803    0.987173369811199    0.244949526036890  0.0000
  O2     O2        0.009632641678244    0.016565743688016    0.714768503570061  0.0000
  O2     O2        0.484043144710745    0.980492217848586    0.738701976402273  0.0000
  O3     O3        0.577744782217226    0.231317490935327    0.108564348570340  0.0000
  O2     O2        0.899986645066645    0.827310274995438    0.095550250580275  0.0000
  O2     O2        0.393170791748470    0.185054451294980    0.876961970271534  0.0000
  O3     O3        0.078208204831755    0.791467515481294    0.863729372287739  0.0000
  O2     O2        0.374407974685186    0.839998534731550    0.870118108748227  0.0000
  O2     O2        0.122567633248098    0.121116485107320    0.870016747203764  0.0000
  O2     O2        0.629082219254043    0.911214555674647    0.087271756532826  0.0000
  O2     O2        0.875040851441123    0.172857674751402    0.104655099441872  0.0000
  O2     O2        0.492646256652877    0.975656515457216    0.993444338936562  0.0000
  O2     O2        0.988514407728954    0.045544793818384    0.967232057238171  0.0000
  O3     O3        0.126752703371342    0.507825885187505    0.285052147522121  0.0000
  O2     O2        0.360374626473156    0.533063750649855    0.288790912642986  0.0000
  O3     O3        0.860507639082620    0.456275363870962    0.679090091499408  0.0000
  O2     O2        0.625794977788628    0.515232943370488    0.684524567998755  0.0000
  O3     O3        0.257245931977360    0.285535824384793    0.320320011724359  0.0000
  O2     O2        0.237843313778379    0.742958112930292    0.308676444675847  0.0000
  O2     O2        0.733251453291074    0.268039319039618    0.665872227508422  0.0000
  O3     O3        0.746002135017581    0.719474086256887    0.647702170509665  0.0000
  O3     O3        0.153370915307137    0.214540196776952    0.114194422172525  0.0000
  O2     O2        0.328185036428865    0.766339136101527    0.108029950066530  0.0000
  O2     O2        0.825253902252471    0.242825031541391    0.866679688710496  0.0000
  O2     O2        0.657668917800522    0.780486733289974    0.849001336541654  0.0000
  O3     O3        0.857254792190686    0.748361387995442    0.856005310020255  0.0000
  O3     O3        0.632591030025680    0.270571408407410    0.859399775095407  0.0000
  O3     O3        0.135670294496012    0.758059759704699    0.116540999115817  0.0000
  O2     O2        0.349771415882747    0.268968379832541    0.116449854101467  0.0000
  O3     O3        0.621764678089128    0.567288041830043    0.034375189316918  0.0000
  O2     O2        0.866131425037422    0.499675996057413    0.029999583322061  0.0000
  O2     O2        0.364022958564962    0.512389253490773    0.938877763337521  0.0000
  O3     O3        0.118214044914185    0.459468857882411    0.948932981792855  0.0000
  O3     O3        0.738826580377962    0.314793278222027    0.070317157901531  0.0000
  O2     O2        0.754566236105660    0.733762272876762    0.043330633291746  0.0000
  O2     O2        0.249085750040293    0.289982342745337    0.925024850142640  0.0000
  O3     O3        0.237816835508718    0.706906809870840    0.904861723176945  0.0000
