data_c01286.vasp
_audit_creation_method             Generated by GULP
_audit_author_name                 Salvador R. G. Balestra
_symmetry_space_group_name_H-M     'P 1             '
_symmetry_Int_Tables_number        1

loop_
_symmetry_equiv_pos_site_id
_symmetry_equiv_pos_as_xyz
_cell_length_a                       17.1601
_cell_length_b                        7.6030
_cell_length_c                       10.2412
_cell_angle_alpha                   91.1002
_cell_angle_beta                    90.0214
_cell_angle_gamma                   89.4119

loop_
_atom_site_label
_atom_site_type_symbol
_atom_site_fract_x
_atom_site_fract_y
_atom_site_fract_z
_atom_site_charge
  Ge     Ge        0.160189999999943    0.293909999999983    0.273440000000051  0.0000
  Ge     Ge        0.842827943848766    0.669695427144892    0.701623136563516  0.0000
  Ge     Ge        0.643421197434231    0.337810546267197    0.025960111482403  0.0000
  Ge     Ge        0.341594727214268    0.329218871851544    0.956805074374536  0.0000
  Si     Si        0.041877330077366    0.010839560366814    0.360300866852151  0.0000
  Si     Si        0.446347447342500    0.007888054692968    0.359101905685237  0.0000
  Si     Si        0.944743100903021    0.975684866158365    0.616684938429771  0.0000
  Si     Si        0.543798464333679    0.993107964321810    0.621078627150793  0.0000
  Si     Si        0.549526279757021    0.021977671349403    0.111434346078928  0.0000
  Si     Si        0.938020591073133    0.009297191002932    0.104546555314535  0.0000
  Si     Si        0.438257838957722    0.010573796259668    0.868638658283289  0.0000
  Si     Si        0.049978294717155    0.004391794107526    0.864671313374836  0.0000
  Si     Si        0.329312900071812    0.723287476457258    0.272260040494188  0.0000
  Si     Si        0.825216918639137    0.261874837473877    0.721303638652082  0.0000
  Si     Si        0.660252086808849    0.704937773222750    0.699872937173490  0.0000
  Si     Si        0.646635959191819    0.300452799306953    0.716363835616019  0.0000
  Si     Si        0.149291244071318    0.706140882485543    0.277349439894607  0.0000
  Si     Si        0.342163192098669    0.315399783731891    0.268982360974642  0.0000
  Si     Si        0.843327283302708    0.694750150875694    0.011313375756652  0.0000
  Si     Si        0.147002557856817    0.697078332404663    0.974400860058952  0.0000
  Si     Si        0.326662899003991    0.732746055838108    0.967941281966787  0.0000
  Si     Si        0.159711422393491    0.295198906958536    0.962228953030466  0.0000
  Si     Si        0.663221031840577    0.739790713202169    0.005718061047875  0.0000
  Si     Si        0.824968939963017    0.299081416850965    0.028475119817271  0.0000
  O3     O3        0.101751265153874    0.169358030846432    0.369345109119212  0.0000
  O2     O2        0.381199061126771    0.856267285298974    0.357675897674455  0.0000
  O2     O2        0.871753024623609    0.104192140079607    0.650239687459850  0.0000
  O2     O2        0.605625633869682    0.831596904134849    0.614348780556944  0.0000
  O3     O3        0.910257268351659    0.781514595693679    0.611691036307438  0.0000
  O2     O2        0.588457737672472    0.177877622178745    0.633154016598398  0.0000
  O2     O2        0.092975599108102    0.831135541718291    0.363988208876389  0.0000
  O2     O2        0.405546496980059    0.199068473725456    0.346606457041042  0.0000
  O2     O2        0.980352666243292    0.020114495029436    0.477038546720134  0.0000
  O2     O2        0.492005842758416    0.997768026033067    0.493176687511153  0.0000
  O2     O2        0.994756505395126    0.025346650972874    0.226048260030790  0.0000
  O2     O2        0.509389079809486    0.971559325156531    0.245879312461129  0.0000
  O2     O2        0.013326552429218    0.999604587451584    0.721672066983231  0.0000
  O2     O2        0.485729233283583    0.959452671482970    0.740132327638455  0.0000
  O3     O3        0.576515592857084    0.222903408449073    0.115313947927547  0.0000
  O2     O2        0.897584299261976    0.818514677051962    0.101761936015945  0.0000
  O3     O3        0.406926904073261    0.208681270927582    0.863628300491416  0.0000
  O2     O2        0.091147564120972    0.815997856127486    0.886910499636929  0.0000
  O2     O2        0.363338237120318    0.884770417256833    0.881968511012820  0.0000
  O2     O2        0.110797113360422    0.163521926316303    0.870229743694359  0.0000
  O2     O2        0.626858953852271    0.902845933745292    0.087008765140582  0.0000
  O2     O2        0.873233398313943    0.163617602584626    0.116078212542547  0.0000
  O2     O2        0.490856539290402    0.978427100182519    0.994681186997091  0.0000
  O2     O2        0.984100191292853    0.042246831601979    0.971695750712609  0.0000
  O3     O3        0.127655639226557    0.507038535885470    0.298243701147126  0.0000
  O2     O2        0.359604303097476    0.523563956956103    0.289301879770023  0.0000
  O3     O3        0.861939618767021    0.447009625229484    0.686257288133490  0.0000
  O2     O2        0.628578801286546    0.505436392181452    0.689065870375293  0.0000
  O3     O3        0.256417026085159    0.276401605569147    0.321012874961498  0.0000
  O2     O2        0.239417908013768    0.739150980082457    0.317995840509516  0.0000
  O2     O2        0.735466879932040    0.256183636067550    0.673664862962090  0.0000
  O3     O3        0.748435955601479    0.709839743877350    0.650617684529750  0.0000
  O3     O3        0.156939090637478    0.231950645598330    0.110635117650262  0.0000
  O2     O2        0.334922685266731    0.778446275936733    0.121714128812068  0.0000
  O2     O2        0.824449440429829    0.236503712331154    0.877148605712263  0.0000
  O2     O2        0.658838964175758    0.771836906367569    0.850564294252831  0.0000
  O3     O3        0.856809055763018    0.739013754369656    0.861469459020230  0.0000
  O3     O3        0.633422675995934    0.261406484823148    0.867176581428033  0.0000
  O2     O2        0.137832097297968    0.756274734993882    0.125439739444025  0.0000
  O3     O3        0.349599164445709    0.265527925445408    0.116908696482889  0.0000
  O3     O3        0.620840701355590    0.559242630241217    0.037969251706249  0.0000
  O2     O2        0.864555620463942    0.491528929175564    0.039484421604114  0.0000
  O3     O3        0.366770702654678    0.546067096933119    0.938137369269973  0.0000
  O2     O2        0.123471141753381    0.493360391018372    0.956270191136956  0.0000
  O3     O3        0.737485832506169    0.307051830211973    0.080234543938866  0.0000
  O2     O2        0.753107692850655    0.726515650681622    0.048230962724327  0.0000
  O3     O3        0.246835959850751    0.296715596907354    0.908490403184371  0.0000
  O2     O2        0.235855493569244    0.720991936833197    0.929454114102701  0.0000
