data_c01274.vasp
_audit_creation_method             Generated by GULP
_audit_author_name                 Salvador R. G. Balestra
_symmetry_space_group_name_H-M     'P 1             '
_symmetry_Int_Tables_number        1

loop_
_symmetry_equiv_pos_site_id
_symmetry_equiv_pos_as_xyz
_cell_length_a                       17.0438
_cell_length_b                        7.6087
_cell_length_c                       10.3070
_cell_angle_alpha                   90.6238
_cell_angle_beta                    89.6184
_cell_angle_gamma                   90.5569

loop_
_atom_site_label
_atom_site_type_symbol
_atom_site_fract_x
_atom_site_fract_y
_atom_site_fract_z
_atom_site_charge
  Ge     Ge        0.160189999999943    0.293909999999983    0.273440000000051  0.0000
  Ge     Ge        0.662759649997714    0.649654492947669    0.709778364055145  0.0000
  Ge     Ge        0.682966169473498    0.221928408420467    0.015296233928225  0.0000
  Ge     Ge        0.657968513814163    0.634461704467824    0.021865239889680  0.0000
  Si     Si        0.054369729951658    0.983499381780118    0.352646134702009  0.0000
  Si     Si        0.458482782007555    0.980635027585157    0.369825974117911  0.0000
  Si     Si        0.964537707846010    0.971837521940024    0.618619968764165  0.0000
  Si     Si        0.560099779410517    0.956983370301364    0.622865464387123  0.0000
  Si     Si        0.569710521565983    0.949578305993349    0.127294330473101  0.0000
  Si     Si        0.958141399247560    0.974583402457640    0.092992356913583  0.0000
  Si     Si        0.463113430724785    0.974724002313585    0.884323191779201  0.0000
  Si     Si        0.075682522855237    0.971153543977816    0.859066314831835  0.0000
  Si     Si        0.355593231206140    0.672616091838477    0.275674560242620  0.0000
  Si     Si        0.860664154650095    0.280003763433611    0.705760601018847  0.0000
  Si     Si        0.843534004866305    0.679073958123719    0.706109208552687  0.0000
  Si     Si        0.681399279938334    0.232356802639762    0.709876481935121  0.0000
  Si     Si        0.174424495790496    0.704445080464416    0.263916775502979  0.0000
  Si     Si        0.344380531156695    0.269089196982905    0.281372758341902  0.0000
  Si     Si        0.840533379964228    0.681601580552832    0.013275228853134  0.0000
  Si     Si        0.349117661332555    0.261872349581617    0.977012843600026  0.0000
  Si     Si        0.183375194670316    0.687548253742847    0.961401144736774  0.0000
  Si     Si        0.364317241897790    0.660787458989948    0.974335304027008  0.0000
  Si     Si        0.168339121313288    0.286151109864737    0.965262309394229  0.0000
  Si     Si        0.865239392687654    0.291415393006180    0.009897862565956  0.0000
  O3     O3        0.090921084846691    0.177291027156044    0.359430927682718  0.0000
  O2     O2        0.410890969996115    0.796651602246289    0.362737293214568  0.0000
  O2     O2        0.921905555563223    0.160107413103642    0.626541412789860  0.0000
  O3     O3        0.595928369323704    0.763923406881436    0.618126996140359  0.0000
  O2     O2        0.901222480037840    0.818531032283932    0.640802130887736  0.0000
  O2     O2        0.632449875558163    0.096431277158410    0.620002886471969  0.0000
  O2     O2        0.128146316367918    0.851877181710394    0.344225703681567  0.0000
  O2     O2        0.398541061658887    0.142237593940856    0.364373854253504  0.0000
  O2     O2        0.001524007428570    0.944924283343741    0.477456316656539  0.0000
  O2     O2        0.504135603326243    0.991053175509566    0.503017209500932  0.0000
  O2     O2        0.000515139178977    0.950171308812038    0.228113087285559  0.0000
  O2     O2        0.521408750773691    0.996788916832274    0.255079932928892  0.0000
  O2     O2        0.034483550280686    0.959787840660973    0.721015930124235  0.0000
  O2     O2        0.507323200198738    0.991884761012466    0.749617829995610  0.0000
  O3     O3        0.649296599321489    0.062963668088739    0.119072946775416  0.0000
  O2     O2        0.885409615222462    0.839324098464246    0.085982143658509  0.0000
  O2     O2        0.395690892514138    0.120886886395647    0.891716716658527  0.0000
  O2     O2        0.141770482973270    0.820951819835888    0.865066021034129  0.0000
  O2     O2        0.425093865942124    0.779233575022718    0.893337580008270  0.0000
  O2     O2        0.114527053766466    0.164468206236222    0.872820013718888  0.0000
  O3     O3        0.591991344834073    0.746907679430474    0.120354797447360  0.0000
  O2     O2        0.928491034037715    0.175037002671552    0.084944544930544  0.0000
  O2     O2        0.522947088942637    0.014381246754677    0.000188068000061  0.0000
  O2     O2        0.014504748794336    0.929272660921114    0.973034077142521  0.0000
  O3     O3        0.140327915568136    0.513680390207175    0.293954224954469  0.0000
  O2     O2        0.373266535443753    0.469946977356453    0.305635998935595  0.0000
  O2     O2        0.879427747496476    0.485052817539489    0.680368055497166  0.0000
  O3     O3        0.645585943773109    0.425170367111608    0.704094108524478  0.0000
  O3     O3        0.254569148478960    0.250437027909178    0.323446282344792  0.0000
  O2     O2        0.265161488834289    0.713409968420312    0.307394823765074  0.0000
  O2     O2        0.771984847495483    0.238045711060486    0.660082983350521  0.0000
  O3     O3        0.756688836418787    0.689716587297222    0.650136395778109  0.0000
  O3     O3        0.150507236319081    0.234584661051498    0.112145525823326  0.0000
  O2     O2        0.373994734695006    0.713887362764999    0.125237556885517  0.0000
  O2     O2        0.868942975699472    0.238111624266441    0.857708585000574  0.0000
  O1     O1        0.648986877791188    0.713583935462137    0.867497654344918  0.0000
  O2     O2        0.832775416562650    0.717288531868234    0.859684814810662  0.0000
  O3     O3        0.680397266116342    0.157683092036350    0.854589263148880  0.0000
  O2     O2        0.169393427978611    0.744733265733636    0.110546814443774  0.0000
  O2     O2        0.352569607623346    0.218092573105315    0.129278408516775  0.0000
  O1     O1        0.634709630617815    0.417300026381906    0.032418547735070  0.0000
  O2     O2        0.886757221300800    0.497627771421704    0.031975678840110  0.0000
  O2     O2        0.385361503198661    0.456327429163493    0.952011204713948  0.0000
  O2     O2        0.149270538877966    0.490573483681300    0.939949890573955  0.0000
  O3     O3        0.778962536486208    0.257374066441283    0.062461293806055  0.0000
  O3     O3        0.754206185942221    0.667356906718552    0.071600443425786  0.0000
  O2     O2        0.259427682283146    0.253609502235572    0.931615873439447  0.0000
  O2     O2        0.275816305151121    0.694397543867862    0.928879894188580  0.0000
