data_c01202.vasp
_audit_creation_method             Generated by GULP
_audit_author_name                 Salvador R. G. Balestra
_symmetry_space_group_name_H-M     'P 1             '
_symmetry_Int_Tables_number        1

loop_
_symmetry_equiv_pos_site_id
_symmetry_equiv_pos_as_xyz
_cell_length_a                       17.1758
_cell_length_b                        7.6284
_cell_length_c                       10.2192
_cell_angle_alpha                   90.8305
_cell_angle_beta                    89.8566
_cell_angle_gamma                   89.9622

loop_
_atom_site_label
_atom_site_type_symbol
_atom_site_fract_x
_atom_site_fract_y
_atom_site_fract_z
_atom_site_charge
  Ge     Ge        0.160189999999943    0.293909999999983    0.273440000000051  0.0000
  Ge     Ge        0.327904078861125    0.743654995114905    0.272507949207601  0.0000
  Ge     Ge        0.647125461747499    0.348166254017277    0.025037154904976  0.0000
  Ge     Ge        0.145235776939198    0.689753806389051    0.956997567005731  0.0000
  Si     Si        0.040799817242016    0.011854641807912    0.355278728364851  0.0000
  Si     Si        0.446995605558610    0.027994961992941    0.358850989827011  0.0000
  Si     Si        0.941873006903107    0.017702573789767    0.612517416764326  0.0000
  Si     Si        0.547186435025327    0.028893935876076    0.615365290448169  0.0000
  Si     Si        0.548269046376384    0.034550387872154    0.105427253508097  0.0000
  Si     Si        0.941788260444833    0.032305982106646    0.097249098263109  0.0000
  Si     Si        0.439076009301367    0.022327492234643    0.861275214520123  0.0000
  Si     Si        0.051496787128276    0.004170725261348    0.852851287088274  0.0000
  Si     Si        0.829552988065316    0.313492164452795    0.713690466012774  0.0000
  Si     Si        0.659318622900927    0.737121161168625    0.711475482815048  0.0000
  Si     Si        0.838322209833729    0.716107003865611    0.710028193856699  0.0000
  Si     Si        0.650963595771525    0.332279647930863    0.713042066247304  0.0000
  Si     Si        0.144942218157542    0.705352999317080    0.270965880514695  0.0000
  Si     Si        0.342891848835591    0.331156952749054    0.274163181480095  0.0000
  Si     Si        0.841441970790833    0.720749475603686    0.014738871549570  0.0000
  Si     Si        0.342674169498457    0.333112748447565    0.969515648914884  0.0000
  Si     Si        0.329319291902676    0.734870746023944    0.961126749699242  0.0000
  Si     Si        0.161433514672765    0.285775441586247    0.962368222973312  0.0000
  Si     Si        0.661399084842964    0.751293460486659    0.017584608173291  0.0000
  Si     Si        0.829990420398476    0.324285568109269    0.021155395631047  0.0000
  O3     O3        0.105556209556261    0.161186749696738    0.371881742621262  0.0000
  O3     O3        0.382253485347861    0.878977007066371    0.372046369868417  0.0000
  O2     O2        0.882967017156612    0.179929001804012    0.631750897060817  0.0000
  O2     O2        0.606130378533607    0.865160600802510    0.627033964731954  0.0000
  O2     O2        0.896178413045837    0.834654856328400    0.626370647613632  0.0000
  O2     O2        0.593842544031097    0.211112342801894    0.627063806978865  0.0000
  O2     O2        0.083247281718624    0.823146369986019    0.353253254333758  0.0000
  O2     O2        0.404738393042818    0.217161321282832    0.355124158795748  0.0000
  O2     O2        0.976330464566102    0.021810944113192    0.467713312871431  0.0000
  O2     O2        0.509376082258074    0.022782125622217    0.473384715331380  0.0000
  O2     O2        0.998612370530668    0.047577910697144    0.218536632096058  0.0000
  O2     O2        0.492794282865935    0.987921259389976    0.224458116132035  0.0000
  O2     O2        0.013781067725397    0.033742605714977    0.711944131450571  0.0000
  O2     O2        0.477438237810289    0.016782611080117    0.719075636604068  0.0000
  O3     O3        0.581764317628987    0.229680099369702    0.115594962074519  0.0000
  O2     O2        0.896565962599766    0.846664760680634    0.100156060814325  0.0000
  O2     O2        0.397783091877279    0.210924086057435    0.880685745193978  0.0000
  O3     O3        0.080968992737593    0.806695120510083    0.863926113529174  0.0000
  O2     O2        0.377583830557638    0.863804954277346    0.867936496455910  0.0000
  O2     O2        0.125389312671405    0.132888756495047    0.871242273921223  0.0000
  O2     O2        0.622818364653384    0.904907197084161    0.103714910113937  0.0000
  O2     O2        0.880694165046002    0.191743720480371    0.105639037373576  0.0000
  O2     O2        0.504399676068919    0.997767975210760    0.969830625606707  0.0000
  O2     O2        0.988842726666593    0.052172666471555    0.963565076604106  0.0000
  O3     O3        0.145646389117891    0.509146786851980    0.322247725077476  0.0000
  O3     O3        0.343381346906282    0.530531617492740    0.321630611876144  0.0000
  O2     O2        0.857933352903173    0.511421747696517    0.685324834615144  0.0000
  O2     O2        0.631601920490213    0.536796769060471    0.689004650098802  0.0000
  O3     O3        0.257950772354008    0.247293708512294    0.290727330671047  0.0000
  O3     O3        0.230112239932847    0.790161229654053    0.286866565169364  0.0000
  O2     O2        0.739969889621467    0.292342938423713    0.669890225140631  0.0000
  O2     O2        0.749498113700438    0.755860341975455    0.668576486609883  0.0000
  O3     O3        0.134352099128995    0.265201483169881    0.111414340916521  0.0000
  O3     O3        0.352199229333515    0.772552735169728    0.110525050124071  0.0000
  O2     O2        0.833929539019112    0.272473813021443    0.867416992099778  0.0000
  O2     O2        0.652028519115757    0.789854147115288    0.863577252168206  0.0000
  O2     O2        0.851819827205960    0.765768419492550    0.862036723467862  0.0000
  O3     O3        0.637716819391076    0.286048530148094    0.863059567162725  0.0000
  O3     O3        0.120315294710884    0.708361798936524    0.119408882204564  0.0000
  O2     O2        0.367946142628286    0.320973615277617    0.120745905838985  0.0000
  O3     O3        0.623419917973120    0.565806299694024    0.048400793155251  0.0000
  O2     O2        0.865073250756839    0.520036413442032    0.041149948615079  0.0000
  O2     O2        0.350323403286774    0.532819021560626    0.922776100572958  0.0000
  O3     O3        0.137211364628520    0.473561016849390    0.908410001738676  0.0000
  O3     O3        0.742370758937544    0.315828226929364    0.071310980433729  0.0000
  O2     O2        0.752135495648034    0.748200465045690    0.055947559732037  0.0000
  O2     O2        0.254654074820894    0.267093820963355    0.956629385527803  0.0000
  O3     O3        0.238740123475946    0.765705014697628    0.937732663050277  0.0000
