data_c01297.vasp
_audit_creation_method             Generated by GULP
_audit_author_name                 Salvador R. G. Balestra
_symmetry_space_group_name_H-M     'P 1             '
_symmetry_Int_Tables_number        1

loop_
_symmetry_equiv_pos_site_id
_symmetry_equiv_pos_as_xyz
_cell_length_a                       17.1453
_cell_length_b                        7.6329
_cell_length_c                       10.2992
_cell_angle_alpha                   91.4010
_cell_angle_beta                    90.4962
_cell_angle_gamma                   89.1624

loop_
_atom_site_label
_atom_site_type_symbol
_atom_site_fract_x
_atom_site_fract_y
_atom_site_fract_z
_atom_site_charge
  Ge     Ge        0.160189999999943    0.293909999999983    0.273440000000051  0.0000
  Ge     Ge        0.849795660781443    0.649506828684626    0.699058795741514  0.0000
  Ge     Ge        0.339351829813343    0.221884993578767    0.963924648731759  0.0000
  Ge     Ge        0.179145398102686    0.684565451695095    0.955389425645117  0.0000
  Si     Si        0.059301684952815    0.986077354896815    0.362023760806239  0.0000
  Si     Si        0.461119596014499    0.953935264865939    0.353298699612874  0.0000
  Si     Si        0.958944884738462    0.942748017507088    0.613740127944211  0.0000
  Si     Si        0.558051877424551    0.943967574241343    0.615755556029995  0.0000
  Si     Si        0.565281520847418    0.971531082216494    0.103936473464540  0.0000
  Si     Si        0.954268268148942    0.953959795128055    0.111009921142824  0.0000
  Si     Si        0.452855089997811    0.934901596705576    0.865531340109832  0.0000
  Si     Si        0.062189012472867    0.968535611291077    0.869443661888104  0.0000
  Si     Si        0.357570440789518    0.644165451014514    0.261951768821981  0.0000
  Si     Si        0.849103369652297    0.239967257072993    0.702835123049759  0.0000
  Si     Si        0.665751923089874    0.643861307583002    0.699024901653370  0.0000
  Si     Si        0.667806496095728    0.241573312665879    0.707583131239310  0.0000
  Si     Si        0.177442374959039    0.697470068706038    0.266139784761607  0.0000
  Si     Si        0.345190767390028    0.243728357604409    0.270890809718662  0.0000
  Si     Si        0.671967959884725    0.258386064298786    0.009753358539514  0.0000
  Si     Si        0.848050017452122    0.662665841538327    0.007402354619036  0.0000
  Si     Si        0.360230848047063    0.626701012800666    0.956774137204548  0.0000
  Si     Si        0.156016331170548    0.280658017970616    0.964935367540002  0.0000
  Si     Si        0.667374907179860    0.658440182410878    0.003386051904687  0.0000
  Si     Si        0.852695110348713    0.258616083311542    0.005187811113875  0.0000
  O3     O3        0.094654212344264    0.178067804606003    0.361764089831550  0.0000
  O2     O2        0.417542648704900    0.768780816398144    0.338409256077426  0.0000
  O2     O2        0.896934670597519    0.103621777494203    0.612628035697443  0.0000
  O2     O2        0.608129210762725    0.763835180291364    0.614467050117785  0.0000
  O3     O3        0.910546388614994    0.766126821167940    0.603106293304399  0.0000
  O2     O2        0.615369847397979    0.109320207823606    0.623427525855116  0.0000
  O2     O2        0.132131370135739    0.851823295286544    0.344020178669739  0.0000
  O2     O2        0.398463161604805    0.113701903938718    0.356709413095420  0.0000
  O2     O2        0.019778896640518    0.954187455745634    0.498838756527745  0.0000
  O2     O2        0.507208390915988    0.955592010449703    0.487398135008634  0.0000
  O2     O2        0.993560243351386    0.957910786256393    0.251804946462171  0.0000
  O2     O2        0.524180561662794    0.975060705874055    0.241497084825149  0.0000
  O2     O2        0.005271329107287    0.949543821169196    0.748695401860157  0.0000
  O2     O2        0.500200832758159    0.948099561167780    0.735490386119315  0.0000
  O2     O2        0.624386137559445    0.133963979668319    0.102157593418136  0.0000
  O2     O2        0.896000689646880    0.789899436711400    0.104113604247216  0.0000
  O3     O3        0.380124263905640    0.067215494412590    0.861347900738627  0.0000
  O3     O3        0.131207142432030    0.826898325192551    0.855836338687546  0.0000
  O2     O2        0.425427876044513    0.735231851781917    0.882290409468205  0.0000
  O2     O2        0.095493428569475    0.164713653765299    0.879209919098155  0.0000
  O2     O2        0.612435490970363    0.788442058969119    0.086221456137791  0.0000
  O2     O2        0.907476089240917    0.137041011859605    0.092758224854642  0.0000
  O2     O2        0.502715603265763    0.999488095880629    0.990194902917219  0.0000
  O2     O2        0.019342071121400    0.922189899652850    0.002491850458064  0.0000
  O3     O3        0.156810893822302    0.511163690024612    0.323574594217006  0.0000
  O2     O2        0.361824987409992    0.446510156837885    0.314348288849936  0.0000
  O3     O3        0.875752509496406    0.432916813281890    0.674152442610285  0.0000
  O2     O2        0.642737290355477    0.440797515340097    0.677241565588073  0.0000
  O3     O3        0.254006446717096    0.210992615262623    0.289338349529693  0.0000
  O2     O2        0.270702060138237    0.724291466986031    0.279456346533150  0.0000
  O2     O2        0.757928533932456    0.213816446169803    0.669661480232068  0.0000
  O3     O3        0.753218268069325    0.675811017581041    0.655508606420097  0.0000
  O3     O3        0.129346342399025    0.284405999969935    0.113883025758613  0.0000
  O2     O2        0.379210288476995    0.635883506616771    0.110703707277072  0.0000
  O2     O2        0.864170537055259    0.201065731124141    0.855015528838551  0.0000
  O2     O2        0.656874675600065    0.697403883116738    0.851215287210515  0.0000
  O3     O3        0.861548757954029    0.713904215486931    0.859783623680735  0.0000
  O2     O2        0.657245409874807    0.202808687341614    0.859561361800887  0.0000
  O3     O3        0.153798670368962    0.708758529326882    0.116012913044073  0.0000
  O3     O3        0.369469785865810    0.205750813956553    0.122959703812808  0.0000
  O2     O2        0.643891097064136    0.459387936408239    0.033060075197344  0.0000
  O2     O2        0.876293535379918    0.461356623499331    0.026605587655558  0.0000
  O3     O3        0.360292268197414    0.427924452963166    0.907429706484795  0.0000
  O3     O3        0.158420980392191    0.471602302081483    0.906820567023036  0.0000
  O2     O2        0.763038749931640    0.235914017218573    0.044997773032781  0.0000
  O2     O2        0.757213984916489    0.685912047321324    0.043081281036980  0.0000
  O3     O3        0.240647117404949    0.188813363592025    0.960486526669444  0.0000
  O3     O3        0.276932786280137    0.718765070910238    0.934724935765471  0.0000
