data_c01282.vasp
_audit_creation_method             Generated by GULP
_audit_author_name                 Salvador R. G. Balestra
_symmetry_space_group_name_H-M     'P 1             '
_symmetry_Int_Tables_number        1

loop_
_symmetry_equiv_pos_site_id
_symmetry_equiv_pos_as_xyz
_cell_length_a                       17.1911
_cell_length_b                        7.6623
_cell_length_c                       10.1998
_cell_angle_alpha                   90.6938
_cell_angle_beta                    89.8489
_cell_angle_gamma                   89.9660

loop_
_atom_site_label
_atom_site_type_symbol
_atom_site_fract_x
_atom_site_fract_y
_atom_site_fract_z
_atom_site_charge
  Ge     Ge        0.160189999999943    0.293909999999983    0.273440000000051  0.0000
  Ge     Ge        0.667387532452517    0.706585163350532    0.699227938134336  0.0000
  Ge     Ge        0.339068473079538    0.697026821833593    0.954477889137248  0.0000
  Ge     Ge        0.668181307594020    0.704473300422150    0.017452108040116  0.0000
  Si     Si        0.046819158528237    0.998201281403721    0.350198186623287  0.0000
  Si     Si        0.448095082490288    0.012288310381832    0.365164396430178  0.0000
  Si     Si        0.953513455636256    0.977124666091589    0.613843471820263  0.0000
  Si     Si        0.552908890430396    0.997921665283987    0.616066451447433  0.0000
  Si     Si        0.557540939730413    0.992780725702605    0.118260327281236  0.0000
  Si     Si        0.945567822068737    0.985647041720552    0.091559181883123  0.0000
  Si     Si        0.450226596142717    0.985484712201290    0.873230615740506  0.0000
  Si     Si        0.061615238566937    0.988378749572344    0.856007695081062  0.0000
  Si     Si        0.338313306031658    0.715507307226605    0.265655862872685  0.0000
  Si     Si        0.839894302277903    0.273013257903222    0.703515198199312  0.0000
  Si     Si        0.847145477467488    0.671963049720631    0.704624417933430  0.0000
  Si     Si        0.660372653524600    0.294443014392795    0.698539754950287  0.0000
  Si     Si        0.159020539395800    0.701234797686640    0.262734392867980  0.0000
  Si     Si        0.343069685832090    0.311591670618030    0.275924808139962  0.0000
  Si     Si        0.654541727405899    0.298238957658628    0.003200323852722  0.0000
  Si     Si        0.847551484608094    0.666628757571856    0.015918853521901  0.0000
  Si     Si        0.348337986881478    0.295724026851804    0.970034938609567  0.0000
  Si     Si        0.157291968599635    0.677059981761770    0.955013036138768  0.0000
  Si     Si        0.167778519640102    0.278313820708526    0.962705681033755  0.0000
  Si     Si        0.834594535476454    0.273553374487776    0.009790550139934  0.0000
  O3     O3        0.098294789360286    0.170533316300752    0.366558628248165  0.0000
  O2     O2        0.390309262821620    0.847540755292836    0.351580804945816  0.0000
  O2     O2        0.892022631398117    0.135476790575379    0.623201208792381  0.0000
  O3     O3        0.607953917458067    0.830918893761647    0.602189722286075  0.0000
  O2     O2        0.912356341270852    0.792909655909273    0.640537804891091  0.0000
  O2     O2        0.607115295490079    0.169773935194439    0.608729110022998  0.0000
  O2     O2        0.105687147630183    0.835680899962780    0.342518038870084  0.0000
  O2     O2        0.400947359203161    0.193981289439176    0.360883556429398  0.0000
  O2     O2        0.987394566837747    0.972959476217261    0.468452161714287  0.0000
  O2     O2        0.487842531083910    0.001515692953994    0.505565325369578  0.0000
  O2     O2        0.996548156871033    0.010655091319762    0.219118583496432  0.0000
  O2     O2        0.515190279659145    0.009963308689952    0.256683787754807  0.0000
  O2     O2        0.024976366299314    0.003204652982726    0.712867752823125  0.0000
  O2     O2        0.509633970798170    0.995653850578153    0.755031610155019  0.0000
  O2     O2        0.598609102068234    0.176588788649768    0.087526270756755  0.0000
  O2     O2        0.911629539351641    0.789401691673957    0.084867441140817  0.0000
  O2     O2        0.402939866711632    0.165722914596314    0.888173886177837  0.0000
  O2     O2        0.097983092388128    0.795696517519460    0.873251157882479  0.0000
  O3     O3        0.390284709396373    0.829214322503763    0.851317393430007  0.0000
  O2     O2        0.126702869578402    0.138446427680392    0.867312634048056  0.0000
  O3     O3        0.620034630657750    0.840198581362228    0.125353859792678  0.0000
  O2     O2        0.876183527320277    0.127534470781085    0.096236790886597  0.0000
  O2     O2        0.496455903200773    0.939394315064181    0.005489096543898  0.0000
  O2     O2        0.995767271207112    0.025466441170166    0.963471453083625  0.0000
  O3     O3        0.131410798672077    0.507893427447356    0.291855410108835  0.0000
  O2     O2        0.365745789165629    0.516137759234417    0.289439445499919  0.0000
  O2     O2        0.869680076601781    0.469417121472176    0.676613689395162  0.0000
  O3     O3        0.637415092745628    0.492660585163417    0.679693633324141  0.0000
  O3     O3        0.255850357942722    0.279842754063561    0.323499498920169  0.0000
  O2     O2        0.247990185146719    0.731504500813111    0.308435558640863  0.0000
  O2     O2        0.750343352791882    0.259132951730350    0.658220534422155  0.0000
  O3     O3        0.763374532729472    0.716814993645986    0.647393860767388  0.0000
  O3     O3        0.155193952613603    0.224267255928325    0.111986388786746  0.0000
  O3     O3        0.346083491236624    0.767178544329640    0.115174750289857  0.0000
  O2     O2        0.845352876127214    0.226893383064277    0.856623193996114  0.0000
  O1     O1        0.660345205533051    0.774129017153132    0.859357647203593  0.0000
  O2     O2        0.841910388573334    0.704873079102757    0.860921343424899  0.0000
  O2     O2        0.648404753813836    0.243281746245273    0.850614852043029  0.0000
  O2     O2        0.153719334060130    0.736286553094281    0.107161781087206  0.0000
  O2     O2        0.352117517507346    0.252218148181086    0.124177006654825  0.0000
  O3     O3        0.629587622259585    0.496156043423258    0.024142012001142  0.0000
  O2     O2        0.871212323824605    0.464584624007395    0.040017936512678  0.0000
  O3     O3        0.376721038823888    0.488948962397709    0.942511096286057  0.0000
  O2     O2        0.133334122802318    0.473033451058073    0.940929968632280  0.0000
  O2     O2        0.743957311509615    0.274300349783293    0.048701517059085  0.0000
  O3     O3        0.762996037225522    0.702972663128913    0.073089513786652  0.0000
  O2     O2        0.258825946409673    0.277262429598855    0.925214550314054  0.0000
  O3     O3        0.243824946484622    0.702064542139349    0.902956358213939  0.0000
