data_c01290.vasp
_audit_creation_method             Generated by GULP
_audit_author_name                 Salvador R. G. Balestra
_symmetry_space_group_name_H-M     'P 1             '
_symmetry_Int_Tables_number        1

loop_
_symmetry_equiv_pos_site_id
_symmetry_equiv_pos_as_xyz
_cell_length_a                       17.0848
_cell_length_b                        7.6007
_cell_length_c                       10.2815
_cell_angle_alpha                   91.5665
_cell_angle_beta                    90.1041
_cell_angle_gamma                   88.9032

loop_
_atom_site_label
_atom_site_type_symbol
_atom_site_fract_x
_atom_site_fract_y
_atom_site_fract_z
_atom_site_charge
  Ge     Ge        0.160189999999943    0.293909999999983    0.273440000000051  0.0000
  Ge     Ge        0.848806066495541    0.658032628555070    0.698292979324063  0.0000
  Ge     Ge        0.644548052565985    0.339898281980710    0.022360375613504  0.0000
  Ge     Ge        0.670228429870748    0.748310592194569    0.008293369422826  0.0000
  Si     Si        0.043600561846932    0.011976942560724    0.357641387005644  0.0000
  Si     Si        0.448845288023781    0.006654539482654    0.360737485366586  0.0000
  Si     Si        0.949560101034030    0.965463757434671    0.615225140434266  0.0000
  Si     Si        0.548243278366817    0.995139549306921    0.620082162603740  0.0000
  Si     Si        0.555229550634606    0.027075623162877    0.114510255139030  0.0000
  Si     Si        0.944508912930417    0.999584088481267    0.097677062218605  0.0000
  Si     Si        0.446531761721514    0.985437376529465    0.873721465728249  0.0000
  Si     Si        0.057934286172832    0.996322183749854    0.860047709337419  0.0000
  Si     Si        0.334378147403930    0.718271060554681    0.272271780924220  0.0000
  Si     Si        0.828674840671700    0.253347283549349    0.716178821962605  0.0000
  Si     Si        0.667298650194876    0.707565924862412    0.699448695798338  0.0000
  Si     Si        0.650462101473146    0.300812887341199    0.716155280939802  0.0000
  Si     Si        0.153066297934818    0.706690536455793    0.270018165086709  0.0000
  Si     Si        0.344006558444848    0.313318915286941    0.277465676863429  0.0000
  Si     Si        0.851953111526111    0.679969935483737    0.010197737858038  0.0000
  Si     Si        0.345937099884987    0.302511416231791    0.972529783594540  0.0000
  Si     Si        0.155038338591686    0.687892498195403    0.967495259921399  0.0000
  Si     Si        0.335750063034020    0.703026205836390    0.969166176224647  0.0000
  Si     Si        0.165432412656571    0.282909266943363    0.964748472548908  0.0000
  Si     Si        0.827576776267733    0.287781555859910    0.022311211890452  0.0000
  O3     O3        0.100978579162183    0.174657930932677    0.370310718016122  0.0000
  O2     O2        0.384593777748679    0.854001114076065    0.357816468614164  0.0000
  O2     O2        0.874143805094877    0.089614323351751    0.648183111101894  0.0000
  O2     O2        0.610497253591304    0.832715363020260    0.615378275708308  0.0000
  O3     O3        0.918243110094074    0.769004624131848    0.612941656353305  0.0000
  O2     O2        0.591286550470767    0.181932337491850    0.630968888326431  0.0000
  O2     O2        0.097557552852367    0.835663410189903    0.355461608174848  0.0000
  O2     O2        0.405564885711908    0.197023895562878    0.358350816457030  0.0000
  O2     O2        0.983155883527623    0.011132363333148    0.475505610138124  0.0000
  O2     O2        0.499865256354311    0.991358954152654    0.488281437449385  0.0000
  O2     O2        0.995243494070313    0.029191799563723    0.225315811528987  0.0000
  O2     O2        0.506428540314923    0.978680953841806    0.239348362403881  0.0000
  O2     O2        0.018567125137340    0.995748443666954    0.719384951740209  0.0000
  O2     O2        0.486581371561130    0.971039228726256    0.734802514302481  0.0000
  O3     O3        0.575549237921269    0.230983833792885    0.111799782369581  0.0000
  O2     O2        0.913369926617861    0.800502891577751    0.090491800912551  0.0000
  O2     O2        0.405097701549046    0.177003767816681    0.891297508712870  0.0000
  O2     O2        0.099164846505435    0.805586723296440    0.878306570662128  0.0000
  O2     O2        0.382867803805428    0.832574768866300    0.879772576213720  0.0000
  O2     O2        0.121038151561049    0.151386256582841    0.866028045220161  0.0000
  O3     O3        0.636854839470603    0.920425071831977    0.105582256536257  0.0000
  O2     O2        0.872883429076878    0.140484549741104    0.103919289438916  0.0000
  O2     O2        0.510752592839852    0.954346051387256    0.984791515457049  0.0000
  O2     O2        0.994208130666314    0.039913568238371    0.970302998458161  0.0000
  O3     O3        0.130893588116180    0.510038835666168    0.296553292480157  0.0000
  O2     O2        0.361957165678669    0.519359456651033    0.301923781297942  0.0000
  O3     O3        0.868528988586401    0.434499226495366    0.681733675265564  0.0000
  O2     O2        0.633117248724561    0.509437990707275    0.700993425651109  0.0000
  O3     O3        0.256884988168744    0.272374506611492    0.320164153179892  0.0000
  O2     O2        0.243213088632955    0.742849924555931    0.309023800408478  0.0000
  O2     O2        0.738710811794546    0.256162158911121    0.666745064063305  0.0000
  O3     O3        0.754542149268517    0.698362340243102    0.642943345286670  0.0000
  O3     O3        0.152476268454692    0.227927553543442    0.111993537798177  0.0000
  O2     O2        0.345780552681854    0.758650782096676    0.120436976973961  0.0000
  O2     O2        0.825247082596837    0.228339553009152    0.870820191222905  0.0000
  O3     O3        0.670840388402749    0.789827967291191    0.844476839323155  0.0000
  O3     O3        0.857905356238238    0.724242759648981    0.859017557373674  0.0000
  O3     O3        0.638733794834222    0.254059685620168    0.864988118565310  0.0000
  O2     O2        0.141383447627727    0.746975661157724    0.117351309196061  0.0000
  O2     O2        0.354812863027612    0.262209000140565    0.124733775987533  0.0000
  O1     O1        0.621020887704042    0.557550034096478    0.033336867208033  0.0000
  O2     O2        0.872520970637697    0.473957858418080    0.034362953089471  0.0000
  O2     O2        0.367935534239428    0.503605506878627    0.945447882972244  0.0000
  O2     O2        0.134075177090242    0.483141407458193    0.946406541613507  0.0000
  O3     O3        0.740181373268745    0.308373166499045    0.075106141997140  0.0000
  O3     O3        0.765234854259824    0.716971698568323    0.060325693346732  0.0000
  O2     O2        0.257136909118384    0.268672570768617    0.929121103831580  0.0000
  O2     O2        0.244950320944917    0.716946624864601    0.928933971278043  0.0000
