data_c01267.vasp
_audit_creation_method             Generated by GULP
_audit_author_name                 Salvador R. G. Balestra
_symmetry_space_group_name_H-M     'P 1             '
_symmetry_Int_Tables_number        1

loop_
_symmetry_equiv_pos_site_id
_symmetry_equiv_pos_as_xyz
_cell_length_a                       17.1573
_cell_length_b                        7.6368
_cell_length_c                       10.2221
_cell_angle_alpha                   90.0598
_cell_angle_beta                    89.0814
_cell_angle_gamma                   90.4522

loop_
_atom_site_label
_atom_site_type_symbol
_atom_site_fract_x
_atom_site_fract_y
_atom_site_fract_z
_atom_site_charge
  Ge     Ge        0.160189999999943    0.293909999999983    0.273440000000051  0.0000
  Ge     Ge        0.659781002924237    0.660546399415686    0.707704171138089  0.0000
  Ge     Ge        0.676420300157074    0.238848555203379    0.705616535061927  0.0000
  Ge     Ge        0.659427518595278    0.647235399587367    0.023252128568161  0.0000
  Si     Si        0.053021782451706    0.985591450255574    0.351318938246853  0.0000
  Si     Si        0.454752571298783    0.984483665821885    0.369576908506868  0.0000
  Si     Si        0.962045465884197    0.980665049748397    0.617217596458005  0.0000
  Si     Si        0.554894132433459    0.961362733276438    0.620860909346900  0.0000
  Si     Si        0.566469615478638    0.961045256815836    0.128417251799640  0.0000
  Si     Si        0.953652115958825    0.975897916875665    0.093259681489054  0.0000
  Si     Si        0.458060377532255    0.980895932714394    0.884202007087631  0.0000
  Si     Si        0.071874655775714    0.978958964600599    0.855478170516504  0.0000
  Si     Si        0.351352538181203    0.679643906893973    0.268737370821794  0.0000
  Si     Si        0.858536675680621    0.287162097796239    0.703254705029440  0.0000
  Si     Si        0.841200282731188    0.687696890406771    0.709618177064429  0.0000
  Si     Si        0.171003834997216    0.703772403393232    0.264172027989689  0.0000
  Si     Si        0.343092135780011    0.276887425384702    0.276240991022902  0.0000
  Si     Si        0.677233412773594    0.238526443463712    0.013898083500504  0.0000
  Si     Si        0.839486880165677    0.678863632460108    0.019554196408939  0.0000
  Si     Si        0.345988980324019    0.271843357634568    0.968628315077983  0.0000
  Si     Si        0.177610026330339    0.689770959615802    0.958954363322939  0.0000
  Si     Si        0.357683783051359    0.668926275380843    0.964134566437532  0.0000
  Si     Si        0.166332830794991    0.289100828985635    0.962109382548762  0.0000
  Si     Si        0.856434311887180    0.287936034968299    0.009819191637081  0.0000
  O3     O3        0.092550886629526    0.174831724313687    0.362036854818547  0.0000
  O2     O2        0.406240607943924    0.804857873574834    0.352739933481802  0.0000
  O2     O2        0.922413857114404    0.171389205702871    0.626041385029320  0.0000
  O3     O3        0.592198673958882    0.770969264506157    0.615933972476906  0.0000
  O2     O2        0.898429192922589    0.830592954773989    0.646166558134188  0.0000
  O3     O3        0.626239640413416    0.097337991466879    0.606871315206178  0.0000
  O2     O2        0.123608291594639    0.846765315736842    0.346603632536891  0.0000
  O2     O2        0.398797466282647    0.151066432048062    0.356855018795045  0.0000
  O2     O2        0.995409191123997    0.949663678954547    0.472465199694238  0.0000
  O2     O2        0.489371339324879    0.986017042877600    0.513365241758437  0.0000
  O2     O2        0.003540177690943    0.962699702568203    0.221501219517833  0.0000
  O2     O2        0.526555173726412    0.997472625039293    0.268073286341528  0.0000
  O2     O2        0.034433227417741    0.968874670243856    0.713948905764404  0.0000
  O2     O2        0.514382229363177    0.003709157956555    0.760851876717732  0.0000
  O2     O2        0.639253623398581    0.095052799750270    0.111362464314535  0.0000
  O2     O2        0.889221635234965    0.822877273485908    0.095479454826364  0.0000
  O2     O2        0.394180349442741    0.134109425779543    0.883003912993138  0.0000
  O2     O2        0.134177765799686    0.822978351242884    0.864854112393106  0.0000
  O2     O2        0.415554064551355    0.790752778964420    0.878489524820089  0.0000
  O2     O2        0.113324555629064    0.167823990018418    0.870331715798655  0.0000
  O3     O3        0.596038219988743    0.763604304589071    0.122780046370850  0.0000
  O2     O2        0.912836657156709    0.165202573415377    0.092070569873475  0.0000
  O2     O2        0.505775457522782    0.003080604012975    0.015564203697227  0.0000
  O2     O2        0.005803118260405    0.948098471000020    0.964597197668621  0.0000
  O3     O3        0.139500606524502    0.511915780957437    0.295939112792837  0.0000
  O2     O2        0.369981258144403    0.477868631449308    0.300442732323035  0.0000
  O2     O2        0.875446350913655    0.493945383886934    0.680731706863573  0.0000
  O1     O1        0.639228442919871    0.443452089785040    0.692114479711871  0.0000
  O3     O3        0.254334290952350    0.252742505088149    0.321698716006126  0.0000
  O2     O2        0.261508495487288    0.718541902765035    0.303868243399276  0.0000
  O3     O3        0.773155361007081    0.242035745765610    0.654280682693406  0.0000
  O3     O3        0.755085300019324    0.702545075916624    0.653935525270918  0.0000
  O3     O3        0.150072857237923    0.236653904909792    0.111041574061691  0.0000
  O2     O2        0.368166781212550    0.719094816477665    0.116016897022190  0.0000
  O2     O2        0.864815083352370    0.240851710295487    0.856866843429378  0.0000
  O1     O1        0.648965778538608    0.723845444099394    0.867803266654233  0.0000
  O2     O2        0.831992305967559    0.719711840603379    0.865310511233648  0.0000
  O3     O3        0.673056856670378    0.169331498326807    0.866510316326180  0.0000
  O2     O2        0.163935379749570    0.744120347862657    0.109609539910053  0.0000
  O2     O2        0.349946107018997    0.229906318613162    0.122500741360501  0.0000
  O3     O3        0.636389026383997    0.426126955341247    0.026321641670237  0.0000
  O2     O2        0.880442194095524    0.489408442997195    0.036936907225414  0.0000
  O2     O2        0.380183319384666    0.466624335483496    0.940180227809516  0.0000
  O2     O2        0.145431419934540    0.492573554133140    0.937749425971462  0.0000
  O2     O2        0.767236915126022    0.260502939341490    0.055402816292820  0.0000
  O3     O3        0.753285936844308    0.676106120576418    0.078905914516996  0.0000
  O2     O2        0.256796796972179    0.259444550224072    0.924795092015999  0.0000
  O2     O2        0.269052254508709    0.700274961304471    0.922587092502208  0.0000
