data_c01217.vasp
_audit_creation_method             Generated by GULP
_audit_author_name                 Salvador R. G. Balestra
_symmetry_space_group_name_H-M     'P 1             '
_symmetry_Int_Tables_number        1

loop_
_symmetry_equiv_pos_site_id
_symmetry_equiv_pos_as_xyz
_cell_length_a                       17.2189
_cell_length_b                        7.6541
_cell_length_c                       10.2146
_cell_angle_alpha                   91.3419
_cell_angle_beta                    90.7226
_cell_angle_gamma                   89.2341

loop_
_atom_site_label
_atom_site_type_symbol
_atom_site_fract_x
_atom_site_fract_y
_atom_site_fract_z
_atom_site_charge
  Ge     Ge        0.160189999999943    0.293909999999983    0.273440000000051  0.0000
  Ge     Ge        0.837019618118633    0.229112543371853    0.700393531532406  0.0000
  Ge     Ge        0.850849372094559    0.647148811077782    0.698814748717614  0.0000
  Ge     Ge        0.347675503439453    0.284952608248037    0.270864086660374  0.0000
  Si     Si        0.054172899792628    0.993727928708929    0.362651867338136  0.0000
  Si     Si        0.458931846068913    0.983494351211668    0.344674037068349  0.0000
  Si     Si        0.956576620546493    0.943364983641093    0.614744508341071  0.0000
  Si     Si        0.551000525754400    0.969462480341855    0.609297821789190  0.0000
  Si     Si        0.561003211333209    0.981519210377409    0.088255482822650  0.0000
  Si     Si        0.945428138014259    0.962411158360903    0.116968849629165  0.0000
  Si     Si        0.443278553138669    0.959888793981278    0.850068357839391  0.0000
  Si     Si        0.056385930825244    0.973970361529992    0.874757561431336  0.0000
  Si     Si        0.346637446138926    0.690932570898470    0.254677497381416  0.0000
  Si     Si        0.668133790903963    0.677159133468833    0.700583695627757  0.0000
  Si     Si        0.655758318129773    0.275335330467544    0.700455417028281  0.0000
  Si     Si        0.165692432601438    0.698832202532030    0.257427174603935  0.0000
  Si     Si        0.659856976459652    0.288576622568081    0.008741483897472  0.0000
  Si     Si        0.849674751071303    0.654949910033488    0.009048331701510  0.0000
  Si     Si        0.341822221462849    0.265752699093456    0.958555289302916  0.0000
  Si     Si        0.162098139946016    0.671240215560037    0.951772694216467  0.0000
  Si     Si        0.341138425010313    0.666821075171601    0.950421861256735  0.0000
  Si     Si        0.162421499673713    0.272579909745575    0.959646614638455  0.0000
  Si     Si        0.671320288226878    0.682269045889006    0.008917932425010  0.0000
  Si     Si        0.837912258142477    0.251965891863230    0.011098733908783  0.0000
  O3     O3        0.092379473132751    0.181877914233583    0.359484211258391  0.0000
  O2     O2        0.394255918507718    0.833185329754369    0.337940386926173  0.0000
  O3     O3        0.886191461936001    0.081376169880742    0.603149929224531  0.0000
  O2     O2        0.612602680813376    0.812338439301074    0.626633887229236  0.0000
  O3     O3        0.918300393890409    0.754931442922734    0.609045710660387  0.0000
  O2     O2        0.591713819204318    0.156879090787269    0.627418188322664  0.0000
  O2     O2        0.122989253663558    0.853845515206827    0.335931215469768  0.0000
  O3     O3        0.413285955999247    0.164869327369645    0.361004643999371  0.0000
  O2     O2        0.020842657046720    0.962224748146233    0.505276235301115  0.0000
  O2     O2        0.517939530379850    0.951964859113132    0.463285361911584  0.0000
  O2     O2        0.983321386572372    0.971718256750068    0.260293791181845  0.0000
  O2     O2        0.507844801080011    0.976568106410634    0.212805871357820  0.0000
  O2     O2        0.996956261254212    0.982811150921639    0.755275973981427  0.0000
  O2     O2        0.479306286015458    0.955837328218838    0.706865693162933  0.0000
  O2     O2        0.602807988989210    0.168915960945237    0.089391265251371  0.0000
  O2     O2        0.904483225148214    0.774353294396795    0.102127277274172  0.0000
  O2     O2        0.392096282272325    0.135965144984238    0.866816854964100  0.0000
  O2     O2        0.107851550475200    0.795681753948383    0.863941835540980  0.0000
  O2     O2        0.391188323083590    0.787319554113999    0.858582044565829  0.0000
  O2     O2        0.111031410307095    0.142803739417367    0.869796324936510  0.0000
  O2     O2        0.624797808741358    0.825931390270264    0.094035159592524  0.0000
  O2     O2        0.884767436701977    0.124053709203652    0.107237966838116  0.0000
  O2     O2        0.511670494140469    0.953652721166204    0.956522813443112  0.0000
  O2     O2        0.011366741783788    0.982020993832720    0.010380044361016  0.0000
  O3     O3        0.133819984184585    0.511982381612645    0.292354706958512  0.0000
  O3     O3        0.377048590804188    0.499214953893121    0.284270801409419  0.0000
  O1     O1        0.872129654446305    0.432247262549945    0.676230599449869  0.0000
  O2     O2        0.638626383798058    0.479569628581652    0.672938838936596  0.0000
  O1     O1        0.254456052539565    0.262899840288983    0.323750068594668  0.0000
  O2     O2        0.256623366119612    0.704340843772556    0.295725858420810  0.0000
  O3     O3        0.740581392132033    0.224276793061178    0.651478208607219  0.0000
  O3     O3        0.755581003078200    0.693010735185505    0.652343406026618  0.0000
  O3     O3        0.154356848781932    0.229312484862324    0.110597441150534  0.0000
  O2     O2        0.353110807371444    0.730556939962725    0.100428815103957  0.0000
  O3     O3        0.844824185391001    0.178719457076731    0.864237672454983  0.0000
  O2     O2        0.666077602893723    0.722639966279920    0.855439281902734  0.0000
  O3     O3        0.860955102094057    0.711879080162603    0.861606045716482  0.0000
  O2     O2        0.652589561282964    0.240843328372518    0.855354535994098  0.0000
  O2     O2        0.154432821023338    0.731155531401495    0.102850821438724  0.0000
  O3     O3        0.353114363940037    0.216119400364038    0.108298384106633  0.0000
  O2     O2        0.636479745601974    0.491190512686132    0.035773566630327  0.0000
  O2     O2        0.871728364518590    0.449138369658913    0.021440724368208  0.0000
  O2     O2        0.368492002090894    0.464855437065877    0.935249885040659  0.0000
  O2     O2        0.134299659241156    0.471686490806865    0.933181063085941  0.0000
  O2     O2        0.748329816750019    0.255019490406270    0.055163026946962  0.0000
  O2     O2        0.761032327604889    0.686629047326236    0.053675472743108  0.0000
  O2     O2        0.251697545304494    0.248090295518749    0.917809473238783  0.0000
  O2     O2        0.251093702658942    0.687221983060242    0.907799376016249  0.0000
