data_c01227.vasp
_audit_creation_method             Generated by GULP
_audit_author_name                 Salvador R. G. Balestra
_symmetry_space_group_name_H-M     'P 1             '
_symmetry_Int_Tables_number        1

loop_
_symmetry_equiv_pos_site_id
_symmetry_equiv_pos_as_xyz
_cell_length_a                       17.1148
_cell_length_b                        7.6517
_cell_length_c                       10.2951
_cell_angle_alpha                   88.7047
_cell_angle_beta                    89.7965
_cell_angle_gamma                   90.2892

loop_
_atom_site_label
_atom_site_type_symbol
_atom_site_fract_x
_atom_site_fract_y
_atom_site_fract_z
_atom_site_charge
  Ge     Ge        0.160189999999943    0.293909999999983    0.273440000000051  0.0000
  Ge     Ge        0.859676475262832    0.322274966325562    0.699523333330191  0.0000
  Ge     Ge        0.669315945212136    0.276246764750316    0.698344063428260  0.0000
  Ge     Ge        0.670823311615144    0.258564241602184    0.008800522017485  0.0000
  Si     Si        0.051889975996030    0.986469289174993    0.356222197293174  0.0000
  Si     Si        0.454473986027476    0.976699996737846    0.364595153322404  0.0000
  Si     Si        0.959320066815291    0.011995312923656    0.615242225100025  0.0000
  Si     Si        0.551792703204908    0.990535744811395    0.623406947192948  0.0000
  Si     Si        0.564263902217390    0.970045143042503    0.119487406733005  0.0000
  Si     Si        0.948829711776203    0.991149622422345    0.101455092350499  0.0000
  Si     Si        0.452466989716044    0.007131341445685    0.881112426810468  0.0000
  Si     Si        0.064936286002735    0.000836497759015    0.863433057082718  0.0000
  Si     Si        0.348191612719336    0.680636339338098    0.272081238814285  0.0000
  Si     Si        0.659281579850885    0.681418030024187    0.710030465563506  0.0000
  Si     Si        0.837938714828458    0.727741649341597    0.712115111497940  0.0000
  Si     Si        0.166890550042265    0.702774888303604    0.267348540065057  0.0000
  Si     Si        0.343340840677469    0.278688624997673    0.273051018813572  0.0000
  Si     Si        0.836349912303357    0.700543117353719    0.018455674453752  0.0000
  Si     Si        0.341405464090903    0.294481201652772    0.967511049039614  0.0000
  Si     Si        0.171846847532579    0.707869155356383    0.964805848113096  0.0000
  Si     Si        0.353042751387160    0.690932375818771    0.969931404264340  0.0000
  Si     Si        0.161399640267873    0.307743292522867    0.964033978618926  0.0000
  Si     Si        0.657512324056944    0.657473951164188    0.019017584950356  0.0000
  Si     Si        0.858358233543212    0.307302469607131    0.002371259949186  0.0000
  O3     O3        0.094601001177658    0.171679965753253    0.363394912738719  0.0000
  O2     O2        0.400577194139069    0.804188204199615    0.359861976477834  0.0000
  O3     O3        0.925510624546659    0.205908860717509    0.607612712440614  0.0000
  O2     O2        0.597197950496907    0.808491409137441    0.642890202446483  0.0000
  O2     O2        0.885860184260525    0.884896735668002    0.645403377149292  0.0000
  O3     O3        0.613698745490180    0.144181194829339    0.600078368295309  0.0000
  O2     O2        0.119315020729629    0.840158647921349    0.351045109911800  0.0000
  O2     O2        0.402552436296259    0.150188328977955    0.346927102679286  0.0000
  O2     O2        0.997840378674122    0.954754228465055    0.481215376946190  0.0000
  O2     O2        0.493444407648453    0.977491414255850    0.503959821654376  0.0000
  O2     O2        0.997557040690262    0.972177351642363    0.231239010918360  0.0000
  O2     O2        0.522052780913925    0.969127470752070    0.257251593630003  0.0000
  O2     O2        0.025499916153028    0.992080607449503    0.724288226432922  0.0000
  O2     O2        0.500289499328266    0.028059271785231    0.749867172396013  0.0000
  O3     O3        0.635537532353604    0.104907006195893    0.118613870717588  0.0000
  O2     O2        0.883689975252095    0.838177025546635    0.102816742042324  0.0000
  O2     O2        0.388877379787764    0.161127012087840    0.881034125843973  0.0000
  O2     O2        0.127871251674238    0.844917867221998    0.871989200795527  0.0000
  O2     O2        0.409669754651517    0.818220198136358    0.887092170610853  0.0000
  O2     O2        0.107089698375165    0.189125186793380    0.874248604278518  0.0000
  O2     O2        0.594825243800338    0.776018450647395    0.091066120774009  0.0000
  O2     O2        0.908569424038484    0.181411231802433    0.097887305072519  0.0000
  O2     O2        0.507436956777202    0.036193701347033    0.004509359098643  0.0000
  O2     O2        0.002121851950296    0.966950490401624    0.975947497469455  0.0000
  O3     O3        0.136729110558742    0.509334595220854    0.296983620685517  0.0000
  O2     O2        0.369097502532387    0.478408688869255    0.300362164155729  0.0000
  O3     O3        0.861060239276684    0.542198698936345    0.655682107741141  0.0000
  O3     O3        0.653530324612026    0.492333563027565    0.651111810235043  0.0000
  O3     O3        0.255113020544420    0.250190155847042    0.320203743870745  0.0000
  O2     O2        0.257937044263193    0.713516786961515    0.306181350101089  0.0000
  O1     O1        0.767375638174350    0.241040241325424    0.681319505177205  0.0000
  O2     O2        0.745996007458631    0.762794204385346    0.687569856442962  0.0000
  O3     O3        0.148068793506190    0.246327536872603    0.111735264903778  0.0000
  O2     O2        0.364894438555519    0.731391867853276    0.121575063535952  0.0000
  O3     O3        0.892880324843777    0.301335120966757    0.858138476677707  0.0000
  O2     O2        0.642909874849242    0.661282351047690    0.864326321563529  0.0000
  O2     O2        0.854186144921166    0.727329563978318    0.866175976285398  0.0000
  O1     O1        0.638276471294015    0.231484239082563    0.854308388513245  0.0000
  O2     O2        0.158130862131461    0.753839371316039    0.114973482544841  0.0000
  O2     O2        0.346949026671569    0.242806619090091    0.119449845358939  0.0000
  O3     O3        0.647683321157974    0.461383503721388    0.069528646480102  0.0000
  O2     O2        0.860852451586501    0.503060654024110    0.059757338546317  0.0000
  O2     O2        0.375355086312741    0.490274817712165    0.942603945612847  0.0000
  O2     O2        0.139506619188894    0.511851647981373    0.942236924353165  0.0000
  O3     O3        0.770379231354283    0.240266639234481    0.993945628229352  0.0000
  O2     O2        0.744820522745649    0.729184954933094    0.047228975212111  0.0000
  O2     O2        0.251654379521997    0.283631129990968    0.924137230456638  0.0000
  O2     O2        0.263388950531782    0.722061977689108    0.930410407353169  0.0000
