data_c01203.vasp
_audit_creation_method             Generated by GULP
_audit_author_name                 Salvador R. G. Balestra
_symmetry_space_group_name_H-M     'P 1             '
_symmetry_Int_Tables_number        1

loop_
_symmetry_equiv_pos_site_id
_symmetry_equiv_pos_as_xyz
_cell_length_a                       17.1081
_cell_length_b                        7.6417
_cell_length_c                       10.2188
_cell_angle_alpha                   90.6164
_cell_angle_beta                    89.7869
_cell_angle_gamma                   89.8005

loop_
_atom_site_label
_atom_site_type_symbol
_atom_site_fract_x
_atom_site_fract_y
_atom_site_fract_z
_atom_site_charge
  Ge     Ge        0.160189999999943    0.293909999999983    0.273440000000051  0.0000
  Ge     Ge        0.327042325832162    0.746606087601892    0.273024427078710  0.0000
  Ge     Ge        0.642071347102791    0.348395821964172    0.017850440179660  0.0000
  Ge     Ge        0.324825249453447    0.742697886581933    0.956518305022414  0.0000
  Si     Si        0.040718226762178    0.010513936771137    0.354776440549118  0.0000
  Si     Si        0.446686182641617    0.028009822288829    0.354824343538714  0.0000
  Si     Si        0.945377641624390    0.010311229408875    0.618148997517905  0.0000
  Si     Si        0.549857233430631    0.029754562708345    0.608018309481509  0.0000
  Si     Si        0.543183126673704    0.030605478958702    0.096435883830348  0.0000
  Si     Si        0.937614027400301    0.034606715711013    0.100907134905644  0.0000
  Si     Si        0.435841024530819    0.025953475770023    0.850574843601899  0.0000
  Si     Si        0.051315662484202    0.008976211899280    0.864585662516177  0.0000
  Si     Si        0.831876518393160    0.309837806048690    0.716706440810455  0.0000
  Si     Si        0.660505553219966    0.734287169754857    0.704632163861167  0.0000
  Si     Si        0.840217347374767    0.710876906453952    0.709565278385239  0.0000
  Si     Si        0.652961875475178    0.330856115616049    0.706048001682867  0.0000
  Si     Si        0.145977918039030    0.699752745155538    0.275497866095995  0.0000
  Si     Si        0.344404554309684    0.334366335476142    0.268044645947586  0.0000
  Si     Si        0.840181678531182    0.719433856194971    0.014599006802000  0.0000
  Si     Si        0.341887013373935    0.336627037997849    0.963554744027614  0.0000
  Si     Si        0.145233018648269    0.691874715052424    0.964857817723196  0.0000
  Si     Si        0.160968593116331    0.295493219825317    0.962886670833186  0.0000
  Si     Si        0.659525959443742    0.751197716176525    0.010925793647428  0.0000
  Si     Si        0.825343174242699    0.324302452170382    0.024361841272776  0.0000
  O3     O3        0.109027905137828    0.151210497940618    0.369223570099845  0.0000
  O3     O3        0.380650148110584    0.883339455905449    0.373006224180071  0.0000
  O2     O2        0.887796324249224    0.174482665458383    0.641539109280273  0.0000
  O2     O2        0.607718037883606    0.863402816751844    0.619543607412820  0.0000
  O2     O2        0.897740895088204    0.829448056461867    0.625043933850209  0.0000
  O2     O2        0.598279286525522    0.209286514018292    0.616598402732626  0.0000
  O2     O2        0.080104991150908    0.819389078203866    0.344242166101254  0.0000
  O2     O2        0.406122646780927    0.218905788575082    0.348786608098804  0.0000
  O2     O2        0.980920345205055    0.021892142157926    0.474394426949217  0.0000
  O2     O2        0.510424196929883    0.023511517098762    0.467595741309121  0.0000
  O2     O2        0.993513294368838    0.053188870034912    0.223673880012680  0.0000
  O2     O2        0.492067435901970    0.981253992368462    0.220809275318855  0.0000
  O2     O2        0.016512069541037    0.011057142490391    0.719853193690732  0.0000
  O2     O2        0.481496996464679    0.025276630069839    0.714758220880484  0.0000
  O3     O3        0.572536723296193    0.229299203079788    0.100179595251081  0.0000
  O2     O2        0.895644715003505    0.845351476112346    0.099521222808617  0.0000
  O2     O2        0.397304250291592    0.216934453577128    0.872737412025070  0.0000
  O2     O2        0.080770988022015    0.813354533621323    0.896439056945299  0.0000
  O3     O3        0.370247482960603    0.878872017865365    0.847550442297853  0.0000
  O2     O2        0.120858169792449    0.151076667295477    0.869258803001657  0.0000
  O2     O2        0.620594276476966    0.908883074689921    0.092262415591233  0.0000
  O2     O2        0.873604932832531    0.188461419606996    0.110846813713322  0.0000
  O2     O2        0.493759416045262    0.979995506420918    0.968638283728095  0.0000
  O2     O2        0.985772617960726    0.066262979714536    0.968648842268314  0.0000
  O3     O3        0.123602536428002    0.501252115953220    0.300722792826012  0.0000
  O3     O3        0.363845816495749    0.536546509547807    0.284408980353680  0.0000
  O2     O2        0.860900952395888    0.506666997441704    0.687111164179778  0.0000
  O2     O2        0.632929705849262    0.534693887943581    0.680792520886993  0.0000
  O3     O3        0.257417894107943    0.292441278448285    0.317037053868891  0.0000
  O3     O3        0.231464473388006    0.744946258051917    0.329293948079547  0.0000
  O2     O2        0.742933684978906    0.289963048954801    0.667311595315838  0.0000
  O2     O2        0.751553277246751    0.750749099741764    0.665088405386499  0.0000
  O3     O3        0.152458300929592    0.233115063740666    0.110884751687760  0.0000
  O1     O1        0.330714716846961    0.816770199222311    0.114433493033250  0.0000
  O2     O2        0.831271113934922    0.272624582780643    0.871087900765777  0.0000
  O2     O2        0.651388193940185    0.786391357704086    0.856293424306859  0.0000
  O2     O2        0.852237427149003    0.761659643264357    0.861681726883128  0.0000
  O3     O3        0.636174202353421    0.285833105158202    0.855684499466255  0.0000
  O2     O2        0.151042264946595    0.734281225092385    0.119366452881354  0.0000
  O2     O2        0.350995380882532    0.279379008164733    0.114463398280438  0.0000
  O3     O3        0.620163036798759    0.566998422768883    0.041802534978205  0.0000
  O2     O2        0.861400303501745    0.518519741114551    0.045315391926235  0.0000
  O3     O3        0.366129975208756    0.535386500186557    0.947041141363475  0.0000
  O2     O2        0.121737625387199    0.487571309752365    0.944707643097958  0.0000
  O3     O3        0.736533456359797    0.316976416669011    0.070744683077727  0.0000
  O2     O2        0.750043510034740    0.750237123154494    0.052423634431876  0.0000
  O2     O2        0.251768700553893    0.308788763194915    0.922368635041022  0.0000
  O3     O3        0.229102132452911    0.729205172076935    0.904060246532804  0.0000
