data_c01333.vasp
_audit_creation_method             Generated by GULP
_audit_author_name                 Salvador R. G. Balestra
_symmetry_space_group_name_H-M     'P 1             '
_symmetry_Int_Tables_number        1

loop_
_symmetry_equiv_pos_site_id
_symmetry_equiv_pos_as_xyz
_cell_length_a                       17.0145
_cell_length_b                        7.6539
_cell_length_c                       10.2907
_cell_angle_alpha                   91.3353
_cell_angle_beta                    89.8241
_cell_angle_gamma                   90.5933

loop_
_atom_site_label
_atom_site_type_symbol
_atom_site_fract_x
_atom_site_fract_y
_atom_site_fract_z
_atom_site_charge
  Ge     Ge        0.160189999999943    0.293909999999983    0.273440000000051  0.0000
  Ge     Ge        0.350591293166313    0.279935116062826    0.271405865055508  0.0000
  Ge     Ge        0.676367122095953    0.240435342092190    0.004271760675911  0.0000
  Ge     Ge        0.837461703787528    0.695734257952013    0.006190704077048  0.0000
  Si     Si        0.054604320973257    0.988965263388839    0.352322097457761  0.0000
  Si     Si        0.459488364537619    0.981578095199745    0.352471472577654  0.0000
  Si     Si        0.955735424662564    0.969993496821776    0.609496412899357  0.0000
  Si     Si        0.558514681204687    0.947688479963869    0.608324285097264  0.0000
  Si     Si        0.562565381298585    0.955765582023583    0.095919401987307  0.0000
  Si     Si        0.951014703219044    0.986247710366654    0.096777393557914  0.0000
  Si     Si        0.451483738211243    0.971331655980233    0.856515318204007  0.0000
  Si     Si        0.062688059012001    0.956629312022215    0.858228046203804  0.0000
  Si     Si        0.350006131280579    0.683799867968386    0.258005967473077  0.0000
  Si     Si        0.853353938105841    0.280767108714297    0.698211238541185  0.0000
  Si     Si        0.660495696389155    0.642582686474263    0.701228567949920  0.0000
  Si     Si        0.839883995104045    0.682404817914119    0.697415074370527  0.0000
  Si     Si        0.674013294048347    0.240774285244355    0.695588247216135  0.0000
  Si     Si        0.166077870511951    0.696226863339080    0.254575166017950  0.0000
  Si     Si        0.343969242606498    0.260855403308759    0.961583289216116  0.0000
  Si     Si        0.170682693833080    0.671469573702477    0.952709099524207  0.0000
  Si     Si        0.352347044243135    0.662383566779536    0.956553472512416  0.0000
  Si     Si        0.161608183792238    0.270973877999513    0.963852513560487  0.0000
  Si     Si        0.653818898318713    0.637142553536894    0.006032290499486  0.0000
  Si     Si        0.859856721205621    0.298947122989622    0.003027340335745  0.0000
  O3     O3        0.096370675645705    0.174952636275065    0.367780729804706  0.0000
  O2     O2        0.393529066697877    0.829410057768609    0.345623385759395  0.0000
  O2     O2        0.914038039779937    0.158760649367734    0.619239897737154  0.0000
  O2     O2        0.599972219028804    0.760702812504245    0.623726620766429  0.0000
  O2     O2        0.891144319467482    0.814947104924655    0.612383676233404  0.0000
  O2     O2        0.622472732992728    0.104501480263543    0.609819421140516  0.0000
  O2     O2        0.123629288701305    0.846225641798982    0.338478989751301  0.0000
  O3     O3        0.413792808192315    0.161884109762658    0.365061910064099  0.0000
  O2     O2        0.999548687616208    0.949389910108147    0.473365545132902  0.0000
  O2     O2        0.517314122836881    0.946860511402937    0.469790912658991  0.0000
  O2     O2        0.001559324177775    0.978766239050091    0.224804539991037  0.0000
  O2     O2        0.509915277200244    0.981196038519756    0.221371370418400  0.0000
  O2     O2        0.020410943483263    0.951995800055918    0.720590863922012  0.0000
  O2     O2        0.491976011128518    0.977621911802627    0.716832222776524  0.0000
  O3     O3        0.636735730943459    0.085081514274054    0.102570123144637  0.0000
  O3     O3        0.877216865254937    0.856544318384855    0.104842381131124  0.0000
  O2     O2        0.389145814108543    0.127860242357823    0.865235180048229  0.0000
  O2     O2        0.124190162703770    0.797434423667366    0.858128365719525  0.0000
  O2     O2        0.409006437316086    0.782464839831913    0.870241808665735  0.0000
  O2     O2        0.106417475053542    0.143423268033211    0.876747540534480  0.0000
  O2     O2        0.591384267104895    0.756163130365611    0.084083875850199  0.0000
  O2     O2        0.922477225450336    0.184182834222942    0.079026888911062  0.0000
  O2     O2        0.515822418059141    0.009376905281327    0.967201016376229  0.0000
  O2     O2        0.999903758993241    0.919766440298851    0.971088793486402  0.0000
  O3     O3        0.130797163929419    0.508740253379216    0.285966478357530  0.0000
  O3     O3        0.381782277866798    0.494715907891730    0.286949854382903  0.0000
  O2     O2        0.872956841232243    0.485510663233488    0.677487199761345  0.0000
  O2     O2        0.640931254322533    0.436843866607359    0.678299335939201  0.0000
  O1     O1        0.254940094196595    0.263356856779156    0.321373330995715  0.0000
  O2     O2        0.257784673297059    0.690607172922952    0.292545855480318  0.0000
  O2     O2        0.765016652200993    0.237012437382737    0.649377466898869  0.0000
  O2     O2        0.748843702213274    0.684308315457246    0.652335650067247  0.0000
  O3     O3        0.149996083971571    0.224653278398048    0.112757726527528  0.0000
  O2     O2        0.362965674596346    0.725308981985271    0.105869144663985  0.0000
  O2     O2        0.859691243409010    0.241256190258336    0.850449334252840  0.0000
  O2     O2        0.653808165827012    0.688477597290186    0.853973443307972  0.0000
  O3     O3        0.844027241749506    0.749711554310762    0.845133558743551  0.0000
  O3     O3        0.669851415807523    0.179731594520007    0.842659958156877  0.0000
  O2     O2        0.158671263430489    0.736326328836566    0.101562559485473  0.0000
  O3     O3        0.355624261778207    0.210943976329105    0.110063147462225  0.0000
  O3     O3        0.629152705420911    0.438486822630990    0.024491457071315  0.0000
  O3     O3        0.884501480721683    0.498473127053274    0.023645920205414  0.0000
  O2     O2        0.375571503169484    0.459039607173598    0.939633247150280  0.0000
  O2     O2        0.139022113841572    0.472245522272417    0.937184703717241  0.0000
  O3     O3        0.772255658186194    0.266188330856198    0.054057788218443  0.0000
  O3     O3        0.741521802175996    0.671592820121986    0.056333956530184  0.0000
  O2     O2        0.252401072983587    0.245360192919051    0.924812009606412  0.0000
  O2     O2        0.262201528078218    0.684581624122543    0.913649828135952  0.0000
