data_c01335.vasp
_audit_creation_method             Generated by GULP
_audit_author_name                 Salvador R. G. Balestra
_symmetry_space_group_name_H-M     'P 1             '
_symmetry_Int_Tables_number        1

loop_
_symmetry_equiv_pos_site_id
_symmetry_equiv_pos_as_xyz
_cell_length_a                       17.0770
_cell_length_b                        7.6169
_cell_length_c                       10.2523
_cell_angle_alpha                   92.2775
_cell_angle_beta                    90.6866
_cell_angle_gamma                   90.3713

loop_
_atom_site_label
_atom_site_type_symbol
_atom_site_fract_x
_atom_site_fract_y
_atom_site_fract_z
_atom_site_charge
  Ge     Ge        0.160189999999943    0.293909999999983    0.273440000000051  0.0000
  Ge     Ge        0.348796322500539    0.334374938211929    0.272603636842927  0.0000
  Ge     Ge        0.646894362468744    0.335366378329408    0.010095959091129  0.0000
  Ge     Ge        0.144913416150815    0.665867119955652    0.947621205427519  0.0000
  Si     Si        0.043040876545130    0.009544528131129    0.351027917730260  0.0000
  Si     Si        0.448941276124208    0.023577257397336    0.353272741750605  0.0000
  Si     Si        0.942765932660675    0.990397908510132    0.604608413325832  0.0000
  Si     Si        0.544601022030286    0.993473267117313    0.613019161530387  0.0000
  Si     Si        0.551991061690565    0.022303180770865    0.105403031601912  0.0000
  Si     Si        0.943320445519662    0.018279516356201    0.090774653230259  0.0000
  Si     Si        0.438468344109841    0.991852432168614    0.863912218548968  0.0000
  Si     Si        0.052540584626900    0.979570677436613    0.848198522116938  0.0000
  Si     Si        0.328047545209446    0.739359964271452    0.251715919319986  0.0000
  Si     Si        0.828395124134555    0.285039599248607    0.702373684850545  0.0000
  Si     Si        0.659936421243094    0.710545747802155    0.697575146208712  0.0000
  Si     Si        0.840439401494376    0.688010340158520    0.698426987536418  0.0000
  Si     Si        0.648845703359087    0.305470302022905    0.698976382846928  0.0000
  Si     Si        0.147179938052634    0.703970827547414    0.255311609824453  0.0000
  Si     Si        0.844530895888034    0.701507814163477    0.001925320462201  0.0000
  Si     Si        0.344611373475676    0.308156963841761    0.962712194319053  0.0000
  Si     Si        0.327155676322746    0.701335793581264    0.944999201012052  0.0000
  Si     Si        0.162522652687951    0.261328741952467    0.964966932001456  0.0000
  Si     Si        0.663233434974454    0.738491952819233    0.002385127125830  0.0000
  Si     Si        0.830318170440581    0.305324648873164    0.008973073123664  0.0000
  O3     O3        0.103318244150534    0.169569949029000    0.372904114705161  0.0000
  O2     O2        0.372109348138253    0.902453708887082    0.324383210527550  0.0000
  O2     O2        0.880967187617696    0.147608240647448    0.621954975765344  0.0000
  O2     O2        0.607763429131543    0.836313904836743    0.610525701564674  0.0000
  O2     O2        0.898301801497666    0.803668095776130    0.614186365169705  0.0000
  O2     O2        0.590044718304836    0.180277705429600    0.613009577629550  0.0000
  O2     O2        0.092493722219831    0.830248544318836    0.343650586882778  0.0000
  O3     O3        0.418382159148432    0.221320326124336    0.359090568241327  0.0000
  O2     O2        0.979240495649180    0.998589927491072    0.462805734700744  0.0000
  O2     O2        0.489420520240208    0.971922266237857    0.487155846762611  0.0000
  O2     O2        0.997429468207778    0.043334482414837    0.216641544306473  0.0000
  O2     O2        0.513494200979081    0.988547848703878    0.242833131033292  0.0000
  O2     O2        0.013054848524134    0.012391805427582    0.709087814492348  0.0000
  O2     O2        0.489439779139060    0.978151994324352    0.736090204500431  0.0000
  O3     O3        0.580522490215233    0.221913687022302    0.099641479239731  0.0000
  O2     O2        0.900384524976929    0.828551704958788    0.090273459873194  0.0000
  O2     O2        0.396014003002560    0.180403575634064    0.869585671114713  0.0000
  O3     O3        0.079591544845149    0.779653981190596    0.853686039583031  0.0000
  O2     O2        0.375141551560651    0.834452278139592    0.858255716895651  0.0000
  O2     O2        0.128301545181453    0.106727904587574    0.868360176741180  0.0000
  O2     O2        0.628210986343237    0.899395474757009    0.087502269412269  0.0000
  O2     O2        0.880002480877072    0.173435664964023    0.093878462004365  0.0000
  O2     O2        0.491679351655329    0.966597259746489    0.990695129690061  0.0000
  O2     O2        0.992963625411392    0.036299183459292    0.961295455875905  0.0000
  O3     O3        0.124059874307294    0.504811568034000    0.276652343862529  0.0000
  O3     O3        0.368294124156925    0.557724354768046    0.284962822431147  0.0000
  O2     O2        0.858446984363755    0.481720054627115    0.674497613642488  0.0000
  O2     O2        0.630533819186388    0.509664766688371    0.674930823797848  0.0000
  O1     O1        0.255967830061952    0.295375497220968    0.324607678362318  0.0000
  O2     O2        0.238165824663615    0.734484821570019    0.298972631632771  0.0000
  O2     O2        0.738014111372931    0.263686522535318    0.656952050122857  0.0000
  O2     O2        0.750790656439713    0.726503554004166    0.657834756929539  0.0000
  O3     O3        0.156920357186054    0.209298895768129    0.114159572612327  0.0000
  O2     O2        0.326464202670151    0.766996183211253    0.096547292534565  0.0000
  O2     O2        0.832566790898852    0.248379657828319    0.855677925887761  0.0000
  O2     O2        0.652094511283402    0.771443497823980    0.848770398883099  0.0000
  O2     O2        0.856093901212243    0.743126500849638    0.850149854592633  0.0000
  O3     O3        0.636123619783656    0.265611966675475    0.848923078833401  0.0000
  O3     O3        0.136360468432884    0.750535817241494    0.105231759369081  0.0000
  O3     O3        0.360381926610587    0.263165397346263    0.111250818717912  0.0000
  O3     O3        0.623953971561415    0.554541388585180    0.033186568009028  0.0000
  O2     O2        0.867310822318015    0.501297599690727    0.028581812944498  0.0000
  O2     O2        0.367921570016481    0.509456248729364    0.935202293135525  0.0000
  O3     O3        0.120222274046677    0.445650628602121    0.942754703182560  0.0000
  O3     O3        0.742386818552972    0.302499691708936    0.058387020704248  0.0000
  O2     O2        0.754782303489070    0.731458043644519    0.039589520533664  0.0000
  O2     O2        0.253172380129743    0.285543879938660    0.928709771857791  0.0000
  O3     O3        0.239082091146451    0.692254706765788    0.892075011513515  0.0000
