data_c01316.vasp
_audit_creation_method             Generated by GULP
_audit_author_name                 Salvador R. G. Balestra
_symmetry_space_group_name_H-M     'P 1             '
_symmetry_Int_Tables_number        1

loop_
_symmetry_equiv_pos_site_id
_symmetry_equiv_pos_as_xyz
_cell_length_a                       17.1109
_cell_length_b                        7.6272
_cell_length_c                       10.2614
_cell_angle_alpha                   90.1887
_cell_angle_beta                    90.6041
_cell_angle_gamma                   89.7856

loop_
_atom_site_label
_atom_site_type_symbol
_atom_site_fract_x
_atom_site_fract_y
_atom_site_fract_z
_atom_site_charge
  Ge     Ge        0.160189999999943    0.293909999999983    0.273440000000051  0.0000
  Ge     Ge        0.649050491476024    0.327027224520758    0.702116982554704  0.0000
  Ge     Ge        0.151834915055812    0.681064182345469    0.952880605619817  0.0000
  Ge     Ge        0.668989797901667    0.725658244583709    0.022676992328421  0.0000
  Si     Si        0.043033743218835    0.007238769869799    0.352041422307393  0.0000
  Si     Si        0.445549601499327    0.018864204008398    0.361215616911491  0.0000
  Si     Si        0.946163781591699    0.006136077493483    0.610015901187079  0.0000
  Si     Si        0.543862433773705    0.020289031184967    0.619791857501010  0.0000
  Si     Si        0.559647940217461    0.011899709086875    0.119975784138221  0.0000
  Si     Si        0.945467779225722    0.000787904692035    0.090678585474890  0.0000
  Si     Si        0.447414430979278    0.996626287891226    0.880146218458745  0.0000
  Si     Si        0.057264018103455    0.995750507500493    0.850751816165843  0.0000
  Si     Si        0.330379549910492    0.726403942809410    0.265906275295085  0.0000
  Si     Si        0.831693608452191    0.300036824534209    0.696384463353382  0.0000
  Si     Si        0.663225121364267    0.740834615366278    0.714825448024182  0.0000
  Si     Si        0.842086912938366    0.700774784427983    0.709722834998507  0.0000
  Si     Si        0.149782960428468    0.707409388738024    0.259353729203486  0.0000
  Si     Si        0.342559649675668    0.326411212576314    0.284169110465898  0.0000
  Si     Si        0.650567154247119    0.320996599393711    0.008737530378724  0.0000
  Si     Si        0.850546175250264    0.681575874158099    0.015702835622575  0.0000
  Si     Si        0.346866340858674    0.309901186122465    0.978842136805006  0.0000
  Si     Si        0.334805173411015    0.705341873012651    0.960393319444530  0.0000
  Si     Si        0.167126346137464    0.272076072446431    0.966463535275497  0.0000
  Si     Si        0.831732534006536    0.288930562823715    0.002318789957125  0.0000
  O3     O3        0.101663067807056    0.168349075999810    0.370316547831353  0.0000
  O2     O2        0.380159882064474    0.869496557208666    0.344011601274599  0.0000
  O2     O2        0.886821719202661    0.169919464651807    0.615687186742851  0.0000
  O2     O2        0.614425683719367    0.879588028416924    0.629078619525619  0.0000
  O2     O2        0.901002345846421    0.825075557485264    0.634016906894111  0.0000
  O3     O3        0.582320867257343    0.210464596039401    0.610504942838749  0.0000
  O2     O2        0.093931262215352    0.829279802227157    0.346206279208696  0.0000
  O2     O2        0.403651433082774    0.209047085435238    0.367058293222996  0.0000
  O2     O2        0.981934103647475    0.995610643204926    0.467646591641430  0.0000
  O2     O2        0.491727351470721    0.981116863620798    0.493392959349241  0.0000
  O2     O2        0.994263467858807    0.039167563360806    0.219770483871973  0.0000
  O2     O2        0.506764466878441    0.014010398783425    0.245513959271374  0.0000
  O2     O2        0.016445377749285    0.033146453378446    0.712735274517413  0.0000
  O2     O2        0.487363599847513    0.003194510687540    0.741864554929899  0.0000
  O2     O2        0.598262755779685    0.202636698141313    0.103084416954097  0.0000
  O2     O2        0.914593977522674    0.800233880769453    0.091047760103757  0.0000
  O2     O2        0.406052521179623    0.183289058285315    0.904691458377602  0.0000
  O3     O3        0.088943126740189    0.798394609794033    0.854210036610833  0.0000
  O2     O2        0.385360479892455    0.839135306756210    0.876714287141077  0.0000
  O2     O2        0.129923819210013    0.128053071459614    0.869748324363232  0.0000
  O3     O3        0.626035153528706    0.865561065503846    0.132069971252043  0.0000
  O2     O2        0.872859186811069    0.135969206343682    0.084647895600794  0.0000
  O2     O2        0.510287532100493    0.954180904955891    0.992247800233313  0.0000
  O2     O2        0.997044097638538    0.037293931082893    0.965224343257809  0.0000
  O3     O3        0.127060551617159    0.507092607762985    0.277666594501320  0.0000
  O2     O2        0.362629459639944    0.532484710929049    0.301234623329594  0.0000
  O2     O2        0.862433832330852    0.498780608349909    0.677130061434724  0.0000
  O3     O3        0.628725442069830    0.547930888061885    0.695598241648567  0.0000
  O3     O3        0.255555998880852    0.289846391513957    0.330384136617390  0.0000
  O2     O2        0.239726118626546    0.739599015842582    0.305642383552493  0.0000
  O3     O3        0.742943330430444    0.287660348201649    0.648204538836731  0.0000
  O2     O2        0.753162555379015    0.741513209990490    0.666109451235582  0.0000
  O3     O3        0.158187091608945    0.214951758089861    0.115585972383568  0.0000
  O2     O2        0.335865260953103    0.762963709853587    0.111977175199726  0.0000
  O2     O2        0.834538004275903    0.247058082872493    0.848651080804594  0.0000
  O3     O3        0.662078918619119    0.800052170201810    0.864614499052874  0.0000
  O2     O2        0.850969578246255    0.735640884615861    0.863719887723921  0.0000
  O3     O3        0.638396115501594    0.257963411683669    0.861129268335765  0.0000
  O3     O3        0.140132696664679    0.760518097051306    0.109073226446224  0.0000
  O2     O2        0.350765895617012    0.271449103875774    0.132702296522326  0.0000
  O3     O3        0.626474396640520    0.521000441493057    0.028095856413843  0.0000
  O2     O2        0.873496093381118    0.476037788996418    0.031506021978788  0.0000
  O2     O2        0.371367239913413    0.509620246158217    0.948266467716440  0.0000
  O3     O3        0.128510585815548    0.461789319818063    0.945396343000364  0.0000
  O2     O2        0.742265089237610    0.300168495598927    0.046738680972926  0.0000
  O3     O3        0.765603581256375    0.714150050379087    0.071615201957959  0.0000
  O2     O2        0.258548666668077    0.281050657938398    0.929445512955291  0.0000
  O3     O3        0.247453326332888    0.707874848451334    0.906009501721221  0.0000
