data_c01394.vasp
_audit_creation_method             Generated by GULP
_audit_author_name                 Salvador R. G. Balestra
_symmetry_space_group_name_H-M     'P 1             '
_symmetry_Int_Tables_number        1

loop_
_symmetry_equiv_pos_site_id
_symmetry_equiv_pos_as_xyz
_cell_length_a                       17.0302
_cell_length_b                        7.6354
_cell_length_c                       10.2902
_cell_angle_alpha                   90.0826
_cell_angle_beta                    90.4423
_cell_angle_gamma                   89.7261

loop_
_atom_site_label
_atom_site_type_symbol
_atom_site_fract_x
_atom_site_fract_y
_atom_site_fract_z
_atom_site_charge
  Ge     Ge        0.160189999999943    0.293909999999983    0.273440000000051  0.0000
  Ge     Ge        0.346432660775499    0.325319890901140    0.963093535252347  0.0000
  Ge     Ge        0.667851802774019    0.726488452753540    0.013988146844501  0.0000
  Ge     Ge        0.828281510222106    0.271983068834404    0.015337718720407  0.0000
  Si     Si        0.045867786436328    0.000653008912565    0.362212870080656  0.0000
  Si     Si        0.448492354829940    0.012086250254501    0.358747573953870  0.0000
  Si     Si        0.944590778059304    0.986420252904514    0.617115341734273  0.0000
  Si     Si        0.547798307178293    0.004660454809912    0.619470515657458  0.0000
  Si     Si        0.554702694922102    0.011851683950077    0.108947155111373  0.0000
  Si     Si        0.942152742419011    0.988176421153467    0.105979003396013  0.0000
  Si     Si        0.444233312272603    0.006454276688317    0.868780179840006  0.0000
  Si     Si        0.050742072972839    0.011840789968576    0.866767468047812  0.0000
  Si     Si        0.334735446553990    0.721116676297973    0.270611963823040  0.0000
  Si     Si        0.829298194267132    0.275346284840434    0.706745090852920  0.0000
  Si     Si        0.663952729518100    0.717554080405618    0.705758889117096  0.0000
  Si     Si        0.843247813808266    0.678108238587098    0.710202079930140  0.0000
  Si     Si        0.650165091462519    0.314545426409855    0.710672490564752  0.0000
  Si     Si        0.152844432382086    0.702455328148983    0.274704691612466  0.0000
  Si     Si        0.343979406194858    0.317475380124329    0.273789303607255  0.0000
  Si     Si        0.644900044746638    0.328771175204960    0.015006314840217  0.0000
  Si     Si        0.851400858679469    0.669433940626896    0.014875454377778  0.0000
  Si     Si        0.149064175284670    0.700565194399984    0.973309232402328  0.0000
  Si     Si        0.330609347712349    0.729855884614163    0.967591803938999  0.0000
  Si     Si        0.162430469408446    0.298790738965229    0.963298300026933  0.0000
  O3     O3        0.101773157222564    0.167251853090687    0.369789977193270  0.0000
  O2     O2        0.385420042121698    0.854671146491901    0.357031661202882  0.0000
  O2     O2        0.880142902934562    0.141722609530562    0.620462613030810  0.0000
  O2     O2        0.612880876520100    0.850419884501718    0.617893367517839  0.0000
  O2     O2        0.903447375176726    0.797603831911671    0.631131516189353  0.0000
  O2     O2        0.588847749821241    0.194153503618575    0.632816924702160  0.0000
  O2     O2        0.100850070062416    0.828506161176141    0.364223094642238  0.0000
  O2     O2        0.404448720357285    0.199043567649314    0.357384801954108  0.0000
  O2     O2        0.985066433505126    0.992328542415011    0.478334969759531  0.0000
  O2     O2        0.500838297092515    0.998054584204889    0.486176801972603  0.0000
  O2     O2        0.997536053775378    0.012471923374278    0.228597062116869  0.0000
  O2     O2        0.505604455601731    0.992056323173719    0.237763344846851  0.0000
  O2     O2        0.011125887961411    0.013622248936459    0.725927746785353  0.0000
  O2     O2        0.485795913365448    0.971572020613984    0.732993984083428  0.0000
  O2     O2        0.582664604111783    0.212251851962853    0.093039554083319  0.0000
  O2     O2        0.914065426744388    0.787549872563704    0.092873730786282  0.0000
  O3     O3        0.414323616407226    0.204882216536604    0.877952108181748  0.0000
  O2     O2        0.091943921129506    0.822791520804868    0.887985709542650  0.0000
  O2     O2        0.368405259999448    0.881381762113944    0.880872623239246  0.0000
  O2     O2        0.112967727166579    0.169190595091872    0.871122708754993  0.0000
  O3     O3        0.629145197818010    0.884668537226872    0.113077057832581  0.0000
  O3     O3        0.867526825774092    0.114691209087507    0.115305368403813  0.0000
  O2     O2        0.503683349928870    0.952086863939461    0.984176894106292  0.0000
  O2     O2        0.986171235049848    0.051173799596555    0.975895485290823  0.0000
  O3     O3        0.127506049830538    0.505633829058178    0.295806338851506  0.0000
  O2     O2        0.365692178944118    0.522891366341183    0.290549439309504  0.0000
  O2     O2        0.862470071860919    0.472503770913527    0.688938986402441  0.0000
  O2     O2        0.630728185242786    0.520044433673609    0.689138003842422  0.0000
  O3     O3        0.256955934861062    0.282350280713160    0.323403182377704  0.0000
  O2     O2        0.244066260545614    0.731291747787856    0.313443070052822  0.0000
  O2     O2        0.738044181080368    0.271835574904657    0.661504335123183  0.0000
  O2     O2        0.754846640672213    0.719957556676946    0.661226972436038  0.0000
  O3     O3        0.157564104130031    0.234900008212827    0.111679411708572  0.0000
  O2     O2        0.341092757315018    0.775654615908046    0.120072462171442  0.0000
  O3     O3        0.833692333732480    0.212194597136290    0.854359245625012  0.0000
  O3     O3        0.660363093305185    0.784303975177592    0.852786576205567  0.0000
  O2     O2        0.850956939825215    0.723008292645625    0.862396115872937  0.0000
  O2     O2        0.643852885694403    0.271257310273975    0.863104687892496  0.0000
  O2     O2        0.139685477375512    0.755469186024438    0.123608608030854  0.0000
  O3     O3        0.352096439351255    0.264253279560080    0.123796959298827  0.0000
  O3     O3        0.620294579072320    0.528420869767028    0.032454239048489  0.0000
  O3     O3        0.875922025016247    0.470144324214919    0.034378464459899  0.0000
  O3     O3        0.369305811551522    0.543083237675435    0.939945207588266  0.0000
  O2     O2        0.126999295222655    0.496833793665309    0.954158609699301  0.0000
  O3     O3        0.732767900639617    0.297813090245384    0.065407236473656  0.0000
  O3     O3        0.763822442962374    0.702481905754768    0.064347413983479  0.0000
  O3     O3        0.250709623990061    0.295097698694142    0.912951135242868  0.0000
  O2     O2        0.238682956360670    0.726721813664392    0.930029128156347  0.0000
