data_c01322.vasp
_audit_creation_method             Generated by GULP
_audit_author_name                 Salvador R. G. Balestra
_symmetry_space_group_name_H-M     'P 1             '
_symmetry_Int_Tables_number        1

loop_
_symmetry_equiv_pos_site_id
_symmetry_equiv_pos_as_xyz
_cell_length_a                       17.0509
_cell_length_b                        7.5977
_cell_length_c                       10.2894
_cell_angle_alpha                   90.3539
_cell_angle_beta                    90.4422
_cell_angle_gamma                   89.8246

loop_
_atom_site_label
_atom_site_type_symbol
_atom_site_fract_x
_atom_site_fract_y
_atom_site_fract_z
_atom_site_charge
  Ge     Ge        0.160189999999943    0.293909999999983    0.273440000000051  0.0000
  Ge     Ge        0.143014997143807    0.713781373045467    0.279436664467800  0.0000
  Ge     Ge        0.644738536400699    0.369834559339508    0.032096237443497  0.0000
  Ge     Ge        0.667904781398284    0.781817440957290    0.023268351963749  0.0000
  Si     Si        0.039053363759324    0.018971197985506    0.366234388334489  0.0000
  Si     Si        0.445758882980848    0.038574210114928    0.372825145836817  0.0000
  Si     Si        0.942709260202538    0.023211430094330    0.622720621855019  0.0000
  Si     Si        0.544633522568622    0.038203422738005    0.633607297298861  0.0000
  Si     Si        0.553753833589264    0.056534891583478    0.130814897519976  0.0000
  Si     Si        0.946536399197689    0.038165521987004    0.101035991489043  0.0000
  Si     Si        0.443897531866163    0.033690452243084    0.888549193762155  0.0000
  Si     Si        0.057383479411377    0.030480570542308    0.861677450471832  0.0000
  Si     Si        0.327828131768244    0.750419063123088    0.285324782188885  0.0000
  Si     Si        0.826758497823675    0.315558653985068    0.721261793457433  0.0000
  Si     Si        0.662030940095010    0.753833918086850    0.716374127737009  0.0000
  Si     Si        0.840989266179795    0.716488291437644    0.713772870539472  0.0000
  Si     Si        0.647863684465502    0.344515005730563    0.725178426373073  0.0000
  Si     Si        0.343468243227502    0.346644458157507    0.282258293658881  0.0000
  Si     Si        0.850101333941106    0.719746673153170    0.018931988462823  0.0000
  Si     Si        0.346591980576188    0.350750094334131    0.977873427873851  0.0000
  Si     Si        0.149505709567635    0.718282400075769    0.972821331164166  0.0000
  Si     Si        0.329841355080907    0.748748817349480    0.980547869890194  0.0000
  Si     Si        0.166700731751076    0.312447445195444    0.966005133647726  0.0000
  Si     Si        0.828849505109312    0.325447405707905    0.026325850959109  0.0000
  O3     O3        0.113494829160774    0.147339056696105    0.371751116762260  0.0000
  O2     O2        0.379986540938189    0.887133942393972    0.367529578270613  0.0000
  O2     O2        0.878656746854817    0.175360821009671    0.644242364738274  0.0000
  O2     O2        0.608008841194901    0.879607869856170    0.627381073344170  0.0000
  O2     O2        0.900998982071719    0.833463932376285    0.631886207022009  0.0000
  O2     O2        0.588126511913819    0.226881435854276    0.639350343390708  0.0000
  O3     O3        0.073643727890622    0.824118627203728    0.369355487086268  0.0000
  O2     O2        0.406196524865482    0.230491061128148    0.361382096337483  0.0000
  O2     O2        0.976829538115941    0.047699772538687    0.479770974432985  0.0000
  O2     O2        0.491760386240343    0.028152986519358    0.506567555522105  0.0000
  O2     O2        0.997365592522796    0.065527473648594    0.229470940287780  0.0000
  O2     O2        0.507484892401628    0.006451674326617    0.258709214404528  0.0000
  O2     O2        0.014738114956352    0.037410399157873    0.723168492287553  0.0000
  O2     O2        0.486648815852987    0.011857311980024    0.753189194181489  0.0000
  O3     O3        0.577140222940383    0.259473653362086    0.125128825181989  0.0000
  O2     O2        0.914201385395368    0.838660833392557    0.093724797387222  0.0000
  O2     O2        0.408064836211688    0.230717562699430    0.899608651573839  0.0000
  O2     O2        0.094265564613109    0.835482741242734    0.879025737884052  0.0000
  O2     O2        0.374765461576984    0.890629432653955    0.895210222614914  0.0000
  O2     O2        0.123863226275327    0.181685249272215    0.864328138653103  0.0000
  O3     O3        0.634064557787236    0.947546851010147    0.121294018991966  0.0000
  O2     O2        0.875377006126825    0.177476214735725    0.105978263817175  0.0000
  O2     O2        0.504534539144111    0.992808048573944    0.004084217860082  0.0000
  O2     O2        0.997019128250798    0.079959682764168    0.974668278968916  0.0000
  O1     O1        0.121474905762998    0.498354153119803    0.296369431459729  0.0000
  O2     O2        0.359951761778608    0.552706737567865    0.309124736954037  0.0000
  O2     O2        0.860026337621595    0.510273287512083    0.691594687747375  0.0000
  O2     O2        0.630153604929788    0.553311395165266    0.711343648291445  0.0000
  O3     O3        0.256948687222882    0.298873829853079    0.324821565880831  0.0000
  O3     O3        0.238278635303213    0.761537365542202    0.328387577038313  0.0000
  O2     O2        0.736121182407940    0.303813689111605    0.675755925167326  0.0000
  O2     O2        0.752063695389616    0.756806606814957    0.667359551391110  0.0000
  O3     O3        0.157232554027664    0.238817072493910    0.110211215314106  0.0000
  O2     O2        0.333528457338929    0.798271204582057    0.132783091770417  0.0000
  O2     O2        0.828452174749077    0.274103920790326    0.873971242165493  0.0000
  O3     O3        0.660512886791507    0.831693666466246    0.860605883852293  0.0000
  O2     O2        0.851130029008415    0.765136013289916    0.865471476218551  0.0000
  O3     O3        0.636720267826148    0.292561886952305    0.873808600561317  0.0000
  O3     O3        0.134334402088921    0.779400444281888    0.118870961856712  0.0000
  O2     O2        0.353285116475430    0.302101885214152    0.129396026651587  0.0000
  O1     O1        0.621542154047001    0.585797282462014    0.048017274600578  0.0000
  O2     O2        0.871435010995188    0.515070697455865    0.043690060934238  0.0000
  O2     O2        0.367801449881966    0.555548107082601    0.956410093087023  0.0000
  O2     O2        0.130563097712938    0.510125318521371    0.957678970222270  0.0000
  O3     O3        0.741470679062979    0.336232228405396    0.078753705739270  0.0000
  O3     O3        0.764510474478632    0.757783225166679    0.070925467522896  0.0000
  O2     O2        0.258324775173194    0.315769509680840    0.928313138775482  0.0000
  O2     O2        0.239773273161330    0.749626123683230    0.934186466031459  0.0000
