data_c01351.vasp
_audit_creation_method             Generated by GULP
_audit_author_name                 Salvador R. G. Balestra
_symmetry_space_group_name_H-M     'P 1             '
_symmetry_Int_Tables_number        1

loop_
_symmetry_equiv_pos_site_id
_symmetry_equiv_pos_as_xyz
_cell_length_a                       17.1085
_cell_length_b                        7.6263
_cell_length_c                       10.2337
_cell_angle_alpha                   90.7124
_cell_angle_beta                    90.4710
_cell_angle_gamma                   89.3862

loop_
_atom_site_label
_atom_site_type_symbol
_atom_site_fract_x
_atom_site_fract_y
_atom_site_fract_z
_atom_site_charge
  Ge     Ge        0.160189999999943    0.293909999999983    0.273440000000051  0.0000
  Ge     Ge        0.641327408204268    0.328458079509092    0.006905679320599  0.0000
  Ge     Ge        0.846621435006820    0.684857014541189    0.013859430244882  0.0000
  Ge     Ge        0.328090357624819    0.715095204802584    0.953474594891220  0.0000
  Si     Si        0.043569396645395    0.011445379096384    0.354309260891106  0.0000
  Si     Si        0.446832453330538    0.009599317289952    0.356270020010875  0.0000
  Si     Si        0.943967312100797    0.991390761282443    0.610570385197315  0.0000
  Si     Si        0.548310945459608    0.012941386329800    0.614632191386092  0.0000
  Si     Si        0.546868615817522    0.011662353390976    0.103976271223573  0.0000
  Si     Si        0.941327930370822    0.004471085345356    0.099696395514745  0.0000
  Si     Si        0.437860265192608    0.999768460269738    0.861321923333987  0.0000
  Si     Si        0.050733942422626    0.997259668227672    0.858773935005025  0.0000
  Si     Si        0.330615601294073    0.725133077558473    0.263483496999018  0.0000
  Si     Si        0.828890904376925    0.287324624329242    0.706882746408490  0.0000
  Si     Si        0.663143611110641    0.719718567590428    0.700694477214438  0.0000
  Si     Si        0.842366926480260    0.690423863636290    0.704061062881148  0.0000
  Si     Si        0.650487313203409    0.317319608881225    0.696332282875266  0.0000
  Si     Si        0.150595143454576    0.703157624671653    0.265457822079831  0.0000
  Si     Si        0.343443565952890    0.318180779771926    0.267257549489781  0.0000
  Si     Si        0.340885686270565    0.312273440490350    0.962776866814407  0.0000
  Si     Si        0.145786674490487    0.682741027159511    0.959043478028923  0.0000
  Si     Si        0.159665079639465    0.283496069863840    0.963550642742018  0.0000
  Si     Si        0.662676440562388    0.729291984981740    0.008082270548071  0.0000
  Si     Si        0.824550210188848    0.284990397175044    0.014404937935307  0.0000
  O3     O3        0.104781845665578    0.166333231188292    0.373003283577360  0.0000
  O2     O2        0.381777387419329    0.858192232213592    0.350810237582160  0.0000
  O2     O2        0.882267220729755    0.150575842017327    0.627524594564770  0.0000
  O2     O2        0.611179712404464    0.853611586735836    0.616330819616317  0.0000
  O2     O2        0.900299408202427    0.805583599333856    0.617598657081128  0.0000
  O2     O2        0.593508181063550    0.197360058750673    0.607091037506216  0.0000
  O2     O2        0.092822944748208    0.830734387399831    0.344706513980923  0.0000
  O2     O2        0.406334575422683    0.201663107982458    0.346692448893843  0.0000
  O2     O2        0.981762304324543    0.002510303985093    0.469257674439799  0.0000
  O2     O2        0.491250573562864    0.993691309561358    0.492529310152490  0.0000
  O2     O2        0.995686284073772    0.051056179662297    0.221924509298935  0.0000
  O2     O2        0.510647825457739    0.979207339864663    0.244545234749271  0.0000
  O2     O2        0.013474579476132    0.007110685684656    0.715808528013844  0.0000
  O2     O2        0.496076345081979    0.004871040750150    0.742527670325600  0.0000
  O3     O3        0.572965357389787    0.211354077750372    0.090321946188031  0.0000
  O3     O3        0.911579662397738    0.806725502519111    0.105477708901918  0.0000
  O2     O2        0.394249840731383    0.186967741270343    0.873787302527296  0.0000
  O2     O2        0.083913244096999    0.800483869938491    0.879196465617643  0.0000
  O3     O3        0.374391525919552    0.849402118475022    0.846285734078219  0.0000
  O2     O2        0.118579235655145    0.142184775046458    0.868507136302598  0.0000
  O2     O2        0.623576170366798    0.889500090564971    0.087536836687366  0.0000
  O2     O2        0.865306432927546    0.131200346675391    0.097009799622426  0.0000
  O2     O2        0.484464056612308    0.953733000023714    0.994101752492392  0.0000
  O2     O2        0.986710755169803    0.043768799882344    0.966731521941951  0.0000
  O3     O3        0.127612364924878    0.506565968196308    0.293919813328534  0.0000
  O2     O2        0.361639002854943    0.525527989069748    0.282080272385559  0.0000
  O2     O2        0.861773010383633    0.483263310679118    0.687086740931095  0.0000
  O2     O2        0.630817996720699    0.523254639146945    0.677015919362735  0.0000
  O3     O3        0.257526775067540    0.280972255859224    0.318406495612756  0.0000
  O2     O2        0.240364063600546    0.737889095457640    0.309152791339704  0.0000
  O2     O2        0.739918137895970    0.278259190365908    0.653798766022483  0.0000
  O2     O2        0.753349913525738    0.728504131551803    0.656900536344027  0.0000
  O3     O3        0.151889213249895    0.225766219706586    0.112320230217064  0.0000
  O3     O3        0.335390895674189    0.782973439745152    0.114175790644234  0.0000
  O2     O2        0.826876812306987    0.240781656237861    0.859281480468178  0.0000
  O2     O2        0.660390654647897    0.770726022769056    0.853300121326218  0.0000
  O3     O3        0.855710579767822    0.747114002268626    0.853176359341334  0.0000
  O3     O3        0.636227778335136    0.265530057949849    0.844880049192285  0.0000
  O2     O2        0.143091787078323    0.741106816592155    0.110967897341901  0.0000
  O2     O2        0.350052754008771    0.261775632385385    0.115029726945085  0.0000
  O3     O3        0.618560701983672    0.547821921581636    0.029199508775620  0.0000
  O3     O3        0.868692600152465    0.467021939787959    0.037877521366178  0.0000
  O3     O3        0.367956169646870    0.507326870848433    0.939156510586145  0.0000
  O2     O2        0.122015435675596    0.478023449781064    0.945144476650594  0.0000
  O3     O3        0.736010875739602    0.297469175031251    0.061196594898325  0.0000
  O3     O3        0.750712723194159    0.715007531491170    0.058709714441802  0.0000
  O2     O2        0.250239699422915    0.290659639291876    0.922859331986738  0.0000
  O3     O3        0.231400708928765    0.711895097957271    0.905173228034054  0.0000
