data_c01371.vasp
_audit_creation_method             Generated by GULP
_audit_author_name                 Salvador R. G. Balestra
_symmetry_space_group_name_H-M     'P 1             '
_symmetry_Int_Tables_number        1

loop_
_symmetry_equiv_pos_site_id
_symmetry_equiv_pos_as_xyz
_cell_length_a                       17.0224
_cell_length_b                        7.6017
_cell_length_c                       10.3059
_cell_angle_alpha                   90.9971
_cell_angle_beta                    89.6743
_cell_angle_gamma                   89.3145

loop_
_atom_site_label
_atom_site_type_symbol
_atom_site_fract_x
_atom_site_fract_y
_atom_site_fract_z
_atom_site_charge
  Ge     Ge        0.160189999999943    0.293909999999983    0.273440000000051  0.0000
  Ge     Ge        0.838661493796322    0.675928485942692    0.002663845662827  0.0000
  Ge     Ge        0.337258557103591    0.209187261205294    0.956452955188538  0.0000
  Ge     Ge        0.361645529820325    0.619349089518487    0.942143159079638  0.0000
  Si     Si        0.058509615784953    0.985649584659926    0.350350149029842  0.0000
  Si     Si        0.460596100527000    0.959746543480607    0.342623116859349  0.0000
  Si     Si        0.961194617582005    0.952189088310318    0.607650843244550  0.0000
  Si     Si        0.561253561136423    0.951162927998971    0.599960319062610  0.0000
  Si     Si        0.557987213483336    0.963329587139994    0.084216708505207  0.0000
  Si     Si        0.948675881873240    0.960362021766750    0.103041204110493  0.0000
  Si     Si        0.450789403762635    0.934153132167127    0.844549171866446  0.0000
  Si     Si        0.060536274256290    0.951771367282588    0.864837527979290  0.0000
  Si     Si        0.358064486461835    0.654526473078872    0.246815727985664  0.0000
  Si     Si        0.855856112430900    0.261215278530516    0.693927037657532  0.0000
  Si     Si        0.665289514884067    0.643541315853066    0.686884844660737  0.0000
  Si     Si        0.845222715538432    0.668904280073493    0.694715352113698  0.0000
  Si     Si        0.675191068632748    0.240783383357973    0.685970565092204  0.0000
  Si     Si        0.178232263420202    0.698789820032598    0.252576676676373  0.0000
  Si     Si        0.342430574265754    0.247460599216421    0.264262157991529  0.0000
  Si     Si        0.671445882567902    0.245318107898905    0.988304749255953  0.0000
  Si     Si        0.176824855893159    0.665056066093304    0.948435380449966  0.0000
  Si     Si        0.154436163744244    0.269668576932842    0.963360952870131  0.0000
  Si     Si        0.655284744120931    0.643443019261645    0.991437564965914  0.0000
  Si     Si        0.853838610760465    0.269862074071398    0.994677079204877  0.0000
  O3     O3        0.092884326070148    0.179363796723989    0.363691743243681  0.0000
  O2     O2        0.416345342218942    0.773576512117920    0.332856425718981  0.0000
  O2     O2        0.915114960607455    0.139777449754822    0.609044697937527  0.0000
  O2     O2        0.606668458062529    0.764041900652551    0.604656772518507  0.0000
  O2     O2        0.899163103349975    0.793630647570394    0.608429116969284  0.0000
  O2     O2        0.624638470793701    0.107049984764400    0.599850098473103  0.0000
  O2     O2        0.133873870291712    0.857757191971620    0.327038682325907  0.0000
  O2     O2        0.399142695258032    0.123035051881475    0.348916812984328  0.0000
  O2     O2        0.011708356890562    0.932013151083647    0.477631498536394  0.0000
  O2     O2        0.510630595675396    0.960126482009292    0.472100344919391  0.0000
  O2     O2        0.999756688891868    0.967971931676543    0.230583057712190  0.0000
  O2     O2        0.520810153341345    0.985661273735432    0.225002404875105  0.0000
  O2     O2        0.020432097627658    0.938745869840755    0.726282450850248  0.0000
  O2     O2        0.502764248557776    0.977845064571776    0.720959912933391  0.0000
  O2     O2        0.628297576126900    0.102250605230552    0.074022855990881  0.0000
  O3     O3        0.882250131994296    0.815196057558985    0.111933371959886  0.0000
  O3     O3        0.370197771374986    0.044190612993309    0.853086209366610  0.0000
  O2     O2        0.131018149763468    0.808661037122109    0.864263456009254  0.0000
  O3     O3        0.428620903105757    0.730844958365155    0.848075841289687  0.0000
  O2     O2        0.091485720807944    0.149442573679448    0.887490211258844  0.0000
  O2     O2        0.590124354856210    0.763842502264414    0.064322377427390  0.0000
  O2     O2        0.907823844489054    0.150105266277357    0.084387440017309  0.0000
  O2     O2        0.493842513243659    0.006596642172807    0.975429868877014  0.0000
  O2     O2        0.999849627485320    0.900127446556363    0.977418002252179  0.0000
  O3     O3        0.138952953270147    0.515851381504911    0.287735960656192  0.0000
  O2     O2        0.376557274069388    0.446264732368030    0.260282206449990  0.0000
  O2     O2        0.874868155168736    0.466742384836429    0.676931868245462  0.0000
  O2     O2        0.645954065856932    0.439400460319152    0.658642763503592  0.0000
  O3     O3        0.255561530498372    0.256218092424251    0.323979512737876  0.0000
  O2     O2        0.269230580872696    0.694690604428611    0.296186804959836  0.0000
  O2     O2        0.767031644878694    0.221828679379429    0.648754455740942  0.0000
  O2     O2        0.755000611187290    0.683076462276060    0.647228066763195  0.0000
  O3     O3        0.149992064340244    0.224670595666121    0.114439311505122  0.0000
  O3     O3        0.369508552502994    0.705166224867775    0.098380539929464  0.0000
  O2     O2        0.866480196434210    0.211460513348122    0.844294919513741  0.0000
  O2     O2        0.653309204955987    0.688531577174761    0.838898951881162  0.0000
  O3     O3        0.849445072422254    0.734039710090903    0.842716443989597  0.0000
  O2     O2        0.664157525921282    0.193679149860367    0.836706505087708  0.0000
  O2     O2        0.177338520344569    0.729788652923735    0.098393130657816  0.0000
  O3     O3        0.338607115075670    0.165210809628776    0.120070052452208  0.0000
  O2     O2        0.633530100969280    0.439107076345298    0.013047906059121  0.0000
  O3     O3        0.877977588396956    0.467848389901013    0.019659753933189  0.0000
  O1     O1        0.385309519288674    0.402503202392083    0.930527929909125  0.0000
  O2     O2        0.133601035148728    0.476080753022931    0.940527760530161  0.0000
  O2     O2        0.762119234789817    0.246487193046602    0.030355521718232  0.0000
  O3     O3        0.740634504328632    0.680356199730313    0.045400178760485  0.0000
  O3     O3        0.240780719984605    0.234128567596603    0.909420637082093  0.0000
  O3     O3        0.264707721311800    0.647865667816191    0.895483099714516  0.0000
