data_c01353.vasp
_audit_creation_method             Generated by GULP
_audit_author_name                 Salvador R. G. Balestra
_symmetry_space_group_name_H-M     'P 1             '
_symmetry_Int_Tables_number        1

loop_
_symmetry_equiv_pos_site_id
_symmetry_equiv_pos_as_xyz
_cell_length_a                       17.0903
_cell_length_b                        7.6101
_cell_length_c                       10.3173
_cell_angle_alpha                   90.3538
_cell_angle_beta                    89.9403
_cell_angle_gamma                   90.3471

loop_
_atom_site_label
_atom_site_type_symbol
_atom_site_fract_x
_atom_site_fract_y
_atom_site_fract_z
_atom_site_charge
  Ge     Ge        0.160189999999943    0.293909999999983    0.273440000000051  0.0000
  Ge     Ge        0.678216552626780    0.219410441894146    0.007844876305201  0.0000
  Ge     Ge        0.837812515814119    0.698942396525841    0.013129054163215  0.0000
  Ge     Ge        0.651115732428731    0.635076811551445    0.015591095323870  0.0000
  Si     Si        0.055970475966477    0.990623274823077    0.359571204591627  0.0000
  Si     Si        0.455847499946743    0.980481879560093    0.358124110853393  0.0000
  Si     Si        0.955176685274209    0.980522617926321    0.614136789649751  0.0000
  Si     Si        0.556994209572775    0.963565906579081    0.614926351400401  0.0000
  Si     Si        0.559159314029257    0.947323889942198    0.109525664949851  0.0000
  Si     Si        0.955688072047868    0.983757629995012    0.101677380767127  0.0000
  Si     Si        0.452219294830812    0.975423031444990    0.866864725991427  0.0000
  Si     Si        0.064304834505750    0.967004888958584    0.861333374696707  0.0000
  Si     Si        0.351367313679442    0.676328687368000    0.262874313107155  0.0000
  Si     Si        0.854186978793034    0.293289560829827    0.698291501500563  0.0000
  Si     Si        0.656946595458910    0.653218946613349    0.707168023552541  0.0000
  Si     Si        0.840127384509769    0.692412278723050    0.706014663669710  0.0000
  Si     Si        0.673049849186633    0.252243248121243    0.698353515945230  0.0000
  Si     Si        0.169517455839084    0.703176152593811    0.259965299157461  0.0000
  Si     Si        0.344804677778828    0.272818132017772    0.271119584143579  0.0000
  Si     Si        0.342214961636079    0.263332345582837    0.967870618149328  0.0000
  Si     Si        0.172683274925098    0.682716075139772    0.958384860715513  0.0000
  Si     Si        0.354105663248450    0.663820944932824    0.962495934894943  0.0000
  Si     Si        0.160495081259944    0.279869632362659    0.966359631349027  0.0000
  Si     Si        0.858951249099205    0.289016932110369    0.002816966987043  0.0000
  O3     O3        0.098761199146994    0.176548860803204    0.372775075405387  0.0000
  O2     O2        0.405059367514752    0.801929852765793    0.350406300245225  0.0000
  O2     O2        0.914030501149454    0.171581164146789    0.618070721641456  0.0000
  O2     O2        0.601266924457720    0.776921069877040    0.621273077836643  0.0000
  O2     O2        0.887610211764547    0.832281573075947    0.619815001524330  0.0000
  O2     O2        0.622268553459477    0.117534448799565    0.611573462288468  0.0000
  O2     O2        0.124095853379100    0.845484837555126    0.345628811632542  0.0000
  O2     O2        0.399026986207323    0.148689836702822    0.358068436798924  0.0000
  O2     O2        0.000930442594027    0.953255432151105    0.480968873682916  0.0000
  O2     O2        0.507031307564490    0.974517789943838    0.485734693311209  0.0000
  O2     O2        0.003311129172382    0.985717470067931    0.232632216205170  0.0000
  O2     O2        0.513889478731012    0.999271640637991    0.238003457047494  0.0000
  O2     O2        0.018306233742219    0.961577408258465    0.727458810085187  0.0000
  O2     O2        0.496358327754964    0.989486326123282    0.731767790758160  0.0000
  O3     O3        0.639490753584186    0.056064384715695    0.100909135813632  0.0000
  O3     O3        0.886811862192660    0.842761916279369    0.112891091911401  0.0000
  O2     O2        0.387236701113836    0.127495422971862    0.876150222708271  0.0000
  O2     O2        0.128800972631350    0.812188990217416    0.860814479845778  0.0000
  O2     O2        0.410673612373963    0.784073334715157    0.875876583564904  0.0000
  O2     O2        0.106255909677014    0.156974990572189    0.876002140463402  0.0000
  O3     O3        0.579274970061688    0.743254297676421    0.103101536529349  0.0000
  O2     O2        0.925634155677065    0.181001876209087    0.076776623429583  0.0000
  O2     O2        0.512436025956478    0.010889591426962    0.982520403077981  0.0000
  O2     O2        0.007044208556639    0.921841601762197    0.979353576064563  0.0000
  O3     O3        0.137002041904975    0.511955170228922    0.291374307174735  0.0000
  O2     O2        0.372541101436087    0.474646750382607    0.291153427171787  0.0000
  O2     O2        0.860938721695446    0.496218911442469    0.654146710627023  0.0000
  O2     O2        0.651601475370392    0.451312462398305    0.657802414333681  0.0000
  O3     O3        0.255988051108836    0.254446994637845    0.315451404255643  0.0000
  O2     O2        0.261116008540350    0.711630565373438    0.296944781547229  0.0000
  O2     O2        0.765814466472041    0.222706579094015    0.676467050779900  0.0000
  O2     O2        0.746673426662190    0.721313110285228    0.696896194312229  0.0000
  O3     O3        0.145249449450336    0.229886749387882    0.114260141681297  0.0000
  O2     O2        0.367531535313892    0.719831475080322    0.112124192972557  0.0000
  O2     O2        0.876902681433056    0.286226682961614    0.848947342377295  0.0000
  O3     O3        0.627803612637458    0.661587198838443    0.853405481350635  0.0000
  O3     O3        0.865160179372753    0.723369934902927    0.853128255787348  0.0000
  O3     O3        0.652116864974228    0.215604261500224    0.846391206276520  0.0000
  O2     O2        0.160034007475382    0.743909603087039    0.107045249352607  0.0000
  O2     O2        0.352142808359611    0.217750175913210    0.119579857619523  0.0000
  O1     O1        0.652091722974664    0.423213581281016    0.064446342881589  0.0000
  O3     O3        0.856701880466389    0.483769944740233    0.057551491839258  0.0000
  O2     O2        0.375723550820194    0.459463294841446    0.941494778934395  0.0000
  O2     O2        0.139906011976885    0.484262988815017    0.941399140439158  0.0000
  O3     O3        0.777343986932947    0.189773406943657    0.022372269428699  0.0000
  O1     O1        0.740748816224913    0.732832061121919    0.034980188391821  0.0000
  O2     O2        0.251268033455790    0.250427922435552    0.931079545681173  0.0000
  O2     O2        0.264251543126182    0.692411547136401    0.923254057942678  0.0000
