data_c01368.vasp
_audit_creation_method             Generated by GULP
_audit_author_name                 Salvador R. G. Balestra
_symmetry_space_group_name_H-M     'P 1             '
_symmetry_Int_Tables_number        1

loop_
_symmetry_equiv_pos_site_id
_symmetry_equiv_pos_as_xyz
_cell_length_a                       17.0894
_cell_length_b                        7.6372
_cell_length_c                       10.2611
_cell_angle_alpha                   91.2605
_cell_angle_beta                    90.6009
_cell_angle_gamma                   89.1154

loop_
_atom_site_label
_atom_site_type_symbol
_atom_site_fract_x
_atom_site_fract_y
_atom_site_fract_z
_atom_site_charge
  Ge     Ge        0.160189999999943    0.293909999999983    0.273440000000051  0.0000
  Ge     Ge        0.664982238957001    0.310732345075116    0.029738812208638  0.0000
  Ge     Ge        0.156384257396315    0.305678082540765    0.956371518044038  0.0000
  Ge     Ge        0.852776494234994    0.310753948070770    0.026273024948539  0.0000
  Si     Si        0.055245521909238    0.991136497714638    0.360346565875481  0.0000
  Si     Si        0.459507304293784    0.972721998706693    0.362694423577997  0.0000
  Si     Si        0.953328087658104    0.967402372370070    0.614376226465654  0.0000
  Si     Si        0.554698943501571    0.981740497120763    0.626786133813546  0.0000
  Si     Si        0.567284297475554    0.004846758470621    0.122857547455566  0.0000
  Si     Si        0.952464441304920    0.995286937317390    0.106714465142991  0.0000
  Si     Si        0.450979633691916    0.973239649428282    0.880964706364350  0.0000
  Si     Si        0.061184750746315    0.991771709238568    0.860814193913730  0.0000
  Si     Si        0.353578540211331    0.671850842645898    0.273993587605394  0.0000
  Si     Si        0.846206489828283    0.275232143484501    0.715015892989407  0.0000
  Si     Si        0.663459478524988    0.682655467114810    0.703439482349596  0.0000
  Si     Si        0.844467005489027    0.680389297100416    0.700805622957725  0.0000
  Si     Si        0.666042047609757    0.277647446371063    0.717725557103296  0.0000
  Si     Si        0.172685840958522    0.706263408955224    0.274180124546084  0.0000
  Si     Si        0.342142846579978    0.270084731043017    0.269083458777367  0.0000
  Si     Si        0.849440158425861    0.703972244340879    0.001148121005655  0.0000
  Si     Si        0.338561776290563    0.274276761491102    0.960602988107009  0.0000
  Si     Si        0.172235319872824    0.709885171978638    0.970111281398134  0.0000
  Si     Si        0.353640201583175    0.667610066892025    0.971242723510148  0.0000
  Si     Si        0.666339422309688    0.704424616279379    0.003755263046391  0.0000
  O3     O3        0.093988146346852    0.179857405974914    0.363244309860459  0.0000
  O2     O2        0.410785368372002    0.793351014665100    0.360308708128653  0.0000
  O2     O2        0.902203594178774    0.145257824001860    0.631892347151236  0.0000
  O2     O2        0.607445180536249    0.803681151231102    0.614708724183226  0.0000
  O2     O2        0.897047608241516    0.798843570694849    0.609707387295510  0.0000
  O2     O2        0.610618652896300    0.149576363549678    0.633500416899313  0.0000
  O2     O2        0.126209045641612    0.848119732586294    0.363012495222438  0.0000
  O2     O2        0.402632466468425    0.137285262447653    0.335368341519567  0.0000
  O2     O2        0.997658150002514    0.971629324159684    0.479447422776756  0.0000
  O2     O2        0.498144322199362    0.997857794428241    0.503385964068694  0.0000
  O2     O2        0.003802479157974    0.951179712913337    0.231796487209351  0.0000
  O2     O2        0.528805533626090    0.960586109767700    0.258839692684832  0.0000
  O2     O2        0.018985492060726    0.945462450459596    0.725491956236671  0.0000
  O2     O2        0.500667927103140    0.977395310802539    0.752108432425811  0.0000
  O3     O3        0.605139229386483    0.193499879050034    0.128259040466467  0.0000
  O2     O2        0.879526952665616    0.862319743530875    0.092434273673437  0.0000
  O2     O2        0.388889751160931    0.132862157457274    0.879413596920673  0.0000
  O2     O2        0.135276306935107    0.861036349113049    0.881798077002595  0.0000
  O2     O2        0.407157551568866    0.788029588040039    0.884116014053966  0.0000
  O3     O3        0.092249915132983    0.187777335651147    0.859248089537484  0.0000
  O2     O2        0.636844236755848    0.864319738167048    0.093985140874189  0.0000
  O3     O3        0.918274356589462    0.189734783112660    0.117879256725711  0.0000
  O2     O2        0.503790412932578    0.995907411228862    0.008295697938783  0.0000
  O2     O2        0.002504198131138    0.962966264299959    0.977849226236112  0.0000
  O3     O3        0.140385814859410    0.514987535438109    0.295172807046663  0.0000
  O2     O2        0.372945224484516    0.467405518156252    0.296511763911324  0.0000
  O2     O2        0.869023949966453    0.476086986796411    0.686345649888500  0.0000
  O2     O2        0.640690510860938    0.479008436366368    0.689964072193514  0.0000
  O3     O3        0.255712834136068    0.251019332770984    0.323760579117774  0.0000
  O2     O2        0.264258298578937    0.711776244602339    0.314812392614523  0.0000
  O2     O2        0.755799758745339    0.245688219067423    0.673564461841404  0.0000
  O2     O2        0.753391648317037    0.706115655541541    0.661600554726431  0.0000
  O1     O1        0.145989367950383    0.237711514285811    0.112921523069565  0.0000
  O2     O2        0.366233527669826    0.718562777343683    0.123201907974511  0.0000
  O3     O3        0.856778998019010    0.235689982903268    0.865945525539144  0.0000
  O2     O2        0.651581782253285    0.750172584329554    0.852407056247484  0.0000
  O2     O2        0.858985778474106    0.748323406508562    0.849037500978108  0.0000
  O3     O3        0.659495596467337    0.237467903120953    0.869130550567361  0.0000
  O2     O2        0.164318305892057    0.759537487072732    0.123100039137914  0.0000
  O2     O2        0.335481076673997    0.230849310418680    0.113938256356649  0.0000
  O3     O3        0.627755169194950    0.523218339165016    0.038140870041645  0.0000
  O3     O3        0.889907464246485    0.520783162472772    0.034304537767345  0.0000
  O2     O2        0.377370868016962    0.464975597922241    0.944065173469605  0.0000
  O3     O3        0.132054020751263    0.525112958851500    0.943195761816815  0.0000
  O1     O1        0.759969589087051    0.290628035739763    0.082074288934871  0.0000
  O2     O2        0.758353813572081    0.668683655645825    0.028302528895638  0.0000
  O3     O3        0.251469654383399    0.273896018760318    0.905111834729630  0.0000
  O2     O2        0.263223480812778    0.695047404849106    0.932248535241461  0.0000
