data_c01329.vasp
_audit_creation_method             Generated by GULP
_audit_author_name                 Salvador R. G. Balestra
_symmetry_space_group_name_H-M     'P 1             '
_symmetry_Int_Tables_number        1

loop_
_symmetry_equiv_pos_site_id
_symmetry_equiv_pos_as_xyz
_cell_length_a                       17.1459
_cell_length_b                        7.6136
_cell_length_c                       10.2825
_cell_angle_alpha                   90.3728
_cell_angle_beta                    90.6527
_cell_angle_gamma                   89.5553

loop_
_atom_site_label
_atom_site_type_symbol
_atom_site_fract_x
_atom_site_fract_y
_atom_site_fract_z
_atom_site_charge
  Ge     Ge        0.160189999999943    0.293909999999983    0.273440000000051  0.0000
  Ge     Ge        0.178247328281705    0.706852906646366    0.268105628514525  0.0000
  Ge     Ge        0.338562127608359    0.228167891653543    0.957959556002823  0.0000
  Ge     Ge        0.178997595920079    0.698953326027498    0.951645245802952  0.0000
  Si     Si        0.055336946950940    0.986880099578890    0.352828293230516  0.0000
  Si     Si        0.462220042326523    0.951397489841337    0.352500505072136  0.0000
  Si     Si        0.954510680826777    0.967060742083164    0.604136906328178  0.0000
  Si     Si        0.559678685102417    0.960465644109603    0.614760272383341  0.0000
  Si     Si        0.565947588754235    0.971579567344050    0.104961978605934  0.0000
  Si     Si        0.957224318050419    0.955444964797897    0.091020356737963  0.0000
  Si     Si        0.454137389814351    0.944495457548432    0.864718440686095  0.0000
  Si     Si        0.064450876153488    0.981827743686750    0.849615952744840  0.0000
  Si     Si        0.360555154809822    0.641804449270208    0.259002429621787  0.0000
  Si     Si        0.848949532567923    0.265897083823446    0.699669230546894  0.0000
  Si     Si        0.667504522413119    0.662081865737654    0.701546053273417  0.0000
  Si     Si        0.847468117724584    0.669112381089624    0.704244349901569  0.0000
  Si     Si        0.668471049367116    0.258605540161516    0.702520498975963  0.0000
  Si     Si        0.343091881222183    0.237454699119115    0.266199835994940  0.0000
  Si     Si        0.673268270372998    0.259833630250738    0.005186286001859  0.0000
  Si     Si        0.846946913349914    0.665966349172807    0.007772483829354  0.0000
  Si     Si        0.360316516242686    0.633907400745675    0.954573369066528  0.0000
  Si     Si        0.157048509119287    0.292226632305165    0.960859720936602  0.0000
  Si     Si        0.666681888519454    0.661647723793938    0.004817438649862  0.0000
  Si     Si        0.854169167492638    0.264999333027063    0.002179111251976  0.0000
  O3     O3        0.090807151621969    0.180007979994915    0.357430659056651  0.0000
  O2     O2        0.424158397296687    0.759070546011628    0.335965804856930  0.0000
  O2     O2        0.900677582798933    0.140942917847384    0.609282206943390  0.0000
  O2     O2        0.613665250522272    0.786316049703929    0.613056014368857  0.0000
  O2     O2        0.902083739043366    0.794738292689149    0.621991665765907  0.0000
  O2     O2        0.614387903094351    0.132178805595427    0.616073147678377  0.0000
  O3     O3        0.128568903196385    0.855922539568085    0.362895555937253  0.0000
  O2     O2        0.396924438740945    0.105118150202712    0.350629966097912  0.0000
  O2     O2        0.992690044864665    0.955169028996953    0.463790765729324  0.0000
  O2     O2        0.504554369765373    0.961595114380515    0.490506048311731  0.0000
  O2     O2        0.012732694561447    0.950641753599391    0.215134940223935  0.0000
  O2     O2        0.527505073254768    0.980333119254360    0.244751756370797  0.0000
  O2     O2        0.022885195736563    0.979919881426702    0.710212527710577  0.0000
  O2     O2        0.505956574352517    0.961032668130645    0.739564756808737  0.0000
  O2     O2        0.626862101525162    0.130905638273336    0.097452588352931  0.0000
  O2     O2        0.896309009918415    0.795433090385762    0.099256132764738  0.0000
  O3     O3        0.382640294713367    0.079618857644696    0.856343174996287  0.0000
  O3     O3        0.134296595819990    0.842796231844701    0.845970446031306  0.0000
  O2     O2        0.424537143900887    0.744635225374559    0.877063827680207  0.0000
  O2     O2        0.093743544618870    0.178357818098170    0.880266168860658  0.0000
  O2     O2        0.611129402851083    0.786009964698199    0.089035880815776  0.0000
  O2     O2        0.910336855191751    0.140382927771241    0.086621477114427  0.0000
  O2     O2        0.501143433140792    0.001074583168221    0.994315580949130  0.0000
  O2     O2        0.006924150370563    0.920228946071459    0.962639496300760  0.0000
  O1     O1        0.160312980691134    0.503219831911399    0.329902224337391  0.0000
  O2     O2        0.357193095632504    0.441250229631834    0.310895803735496  0.0000
  O2     O2        0.870759351769994    0.467727970756561    0.672862758662572  0.0000
  O2     O2        0.645189702646558    0.460165074407079    0.673670355991924  0.0000
  O3     O3        0.252247301732967    0.197417419691463    0.285149615285039  0.0000
  O3     O3        0.278070096661230    0.736869690492475    0.275517999501262  0.0000
  O2     O2        0.758687407129880    0.229506094673865    0.666172196589758  0.0000
  O2     O2        0.757110418577697    0.698792796703364    0.665608346319399  0.0000
  O3     O3        0.133574385924351    0.304355205204198    0.110996064488564  0.0000
  O2     O2        0.383089383001140    0.632051424300495    0.107627326798192  0.0000
  O2     O2        0.866871379614132    0.220706906625116    0.850233518335973  0.0000
  O2     O2        0.653675358525966    0.707034301700238    0.853134062546653  0.0000
  O2     O2        0.859191590142862    0.711914116668663    0.856598129368217  0.0000
  O2     O2        0.657011750629575    0.213373908737653    0.854086698658063  0.0000
  O1     O1        0.150291330954066    0.731087070330370    0.108420273637255  0.0000
  O3     O3        0.367394117079772    0.207814633793906    0.117880475421893  0.0000
  O2     O2        0.645514514060590    0.459515932217971    0.032588505117575  0.0000
  O2     O2        0.875667190032143    0.466721882417244    0.033555520156340  0.0000
  O3     O3        0.357774127807530    0.437516637033107    0.901723499043707  0.0000
  O3     O3        0.160835922665784    0.484942952102065    0.902114751299376  0.0000
  O2     O2        0.764475332681294    0.234035151710607    0.038032714326397  0.0000
  O2     O2        0.756676907819648    0.691834646658877    0.043893993108156  0.0000
  O3     O3        0.239738755582787    0.192950017210601    0.951363215157794  0.0000
  O3     O3        0.277924173520210    0.731877604029309    0.940168977819673  0.0000
