data_c01313.vasp
_audit_creation_method             Generated by GULP
_audit_author_name                 Salvador R. G. Balestra
_symmetry_space_group_name_H-M     'P 1             '
_symmetry_Int_Tables_number        1

loop_
_symmetry_equiv_pos_site_id
_symmetry_equiv_pos_as_xyz
_cell_length_a                       17.1454
_cell_length_b                        7.6310
_cell_length_c                       10.2981
_cell_angle_alpha                   90.3977
_cell_angle_beta                    89.6645
_cell_angle_gamma                   89.1596

loop_
_atom_site_label
_atom_site_type_symbol
_atom_site_fract_x
_atom_site_fract_y
_atom_site_fract_z
_atom_site_charge
  Ge     Ge        0.160189999999943    0.293909999999983    0.273440000000051  0.0000
  Ge     Ge        0.668529041655514    0.263469437756515    0.697489489065502  0.0000
  Ge     Ge        0.342922638771254    0.225831084022702    0.964984636504310  0.0000
  Ge     Ge        0.182720890484306    0.689541397732345    0.953129871315151  0.0000
  Si     Si        0.057647522660198    0.983621696422059    0.352367630228131  0.0000
  Si     Si        0.459591186491115    0.952385630213985    0.357794740614952  0.0000
  Si     Si        0.960653785534529    0.964013151395900    0.611174481979942  0.0000
  Si     Si        0.559439481376434    0.965941948266672    0.612813150206069  0.0000
  Si     Si        0.566198586862839    0.973418666823478    0.110573824153743  0.0000
  Si     Si        0.955620184621074    0.954499753365843    0.097331171699929  0.0000
  Si     Si        0.457808094094534    0.941348645481358    0.869530937621569  0.0000
  Si     Si        0.067999447246010    0.975647301877396    0.858491941589728  0.0000
  Si     Si        0.357690887777512    0.644961092228201    0.260229718926863  0.0000
  Si     Si        0.852504817599181    0.266959328688696    0.695897125151640  0.0000
  Si     Si        0.670308986459106    0.673670642906097    0.703091215107369  0.0000
  Si     Si        0.851553933222964    0.669518052383400    0.706695045662960  0.0000
  Si     Si        0.177112657379048    0.698021798349623    0.262809815020843  0.0000
  Si     Si        0.345029354664774    0.244372808771075    0.272344677226656  0.0000
  Si     Si        0.671708188532404    0.260718507841358    0.005703729787756  0.0000
  Si     Si        0.848452891680407    0.663361653563602    0.008828033921777  0.0000
  Si     Si        0.364115502163967    0.630817615743861    0.956077721253736  0.0000
  Si     Si        0.159835848331837    0.284622005167286    0.964595783986591  0.0000
  Si     Si        0.667705927651674    0.664885773406302    0.005240747498140  0.0000
  Si     Si        0.852250079168016    0.263362445237497    0.000269585036685  0.0000
  O3     O3        0.093702015696357    0.175050467195577    0.360762637165384  0.0000
  O2     O2        0.416022414732655    0.768868110077393    0.337757138151207  0.0000
  O2     O2        0.909970267547957    0.143405638044954    0.611149437885732  0.0000
  O2     O2        0.622932068783396    0.808104299545449    0.613836266215358  0.0000
  O2     O2        0.904472942795478    0.797984369603524    0.623626658769829  0.0000
  O3     O3        0.606566415673325    0.144094688755705    0.602597485521463  0.0000
  O2     O2        0.131480767224456    0.850189095077875    0.341857683449636  0.0000
  O2     O2        0.397912463195817    0.114045216156538    0.359194181402156  0.0000
  O2     O2        0.006894190163978    0.941797476673890    0.477879676222915  0.0000
  O2     O2        0.499687152228187    0.943296199867517    0.496812983899884  0.0000
  O2     O2        0.001124030764972    0.961639087355654    0.230571029529743  0.0000
  O2     O2        0.527032655675517    0.977388309740326    0.251322789981636  0.0000
  O2     O2        0.022674630339260    0.970021452754587    0.725110113209284  0.0000
  O2     O2        0.511748601989154    0.963722519401698    0.746269679970830  0.0000
  O2     O2        0.624070448634350    0.137767218264382    0.102626873662606  0.0000
  O2     O2        0.896836601586140    0.791073018858896    0.101122198336281  0.0000
  O3     O3        0.385456849298253    0.074736458327807    0.862417665690085  0.0000
  O3     O3        0.137531983618786    0.834833585015548    0.851711568661469  0.0000
  O2     O2        0.429451250766641    0.740811972745478    0.879502012273355  0.0000
  O2     O2        0.099622244462942    0.171011746446075    0.880264367082550  0.0000
  O2     O2        0.613625160623073    0.790061491199344    0.093844441613717  0.0000
  O2     O2        0.907583902371559    0.135986708435296    0.081787996481126  0.0000
  O2     O2        0.501508510764893    0.998209548759294    0.000831928436117  0.0000
  O2     O2        0.014457399431100    0.918624978693804    0.979034982473151  0.0000
  O3     O3        0.156296965790052    0.510738457533153    0.321223770371901  0.0000
  O2     O2        0.361208250188648    0.446816575098476    0.314299259016283  0.0000
  O2     O2        0.876084587587292    0.469028624482449    0.674829580220573  0.0000
  O3     O3        0.643263639196716    0.479742404914428    0.674165464266463  0.0000
  O3     O3        0.253846011694703    0.210946215329535    0.291513010801073  0.0000
  O2     O2        0.270405012476322    0.724220219015368    0.274199849657273  0.0000
  O3     O3        0.764912780836876    0.234543142834694    0.652434393945596  0.0000
  O2     O2        0.761449756238720    0.697374764705757    0.669267247367633  0.0000
  O3     O3        0.131958369177111    0.286512059252482    0.113312463302256  0.0000
  O2     O2        0.382648535334054    0.638490077546418    0.109850675668423  0.0000
  O2     O2        0.861739326113728    0.219189491126590    0.847859133653767  0.0000
  O2     O2        0.655838998903445    0.718331695789325    0.855481732613938  0.0000
  O2     O2        0.862653429872778    0.713180022748023    0.858704399767893  0.0000
  O3     O3        0.657931322186271    0.204000898032433    0.857991821688091  0.0000
  O3     O3        0.154112140895769    0.713794520724103    0.112785366888087  0.0000
  O3     O3        0.370561157976479    0.208245336093395    0.124692148286894  0.0000
  O2     O2        0.643871480106806    0.463012371778818    0.025224625055624  0.0000
  O2     O2        0.876485761134244    0.463021444663658    0.031126209169100  0.0000
  O3     O3        0.364881910503212    0.432820484077246    0.907824041848638  0.0000
  O3     O3        0.163288326073974    0.476871960016354    0.906023191625503  0.0000
  O2     O2        0.762665259953670    0.238146533679776    0.041056420073436  0.0000
  O2     O2        0.757593955339461    0.687732596895498    0.044775618171124  0.0000
  O3     O3        0.244376906880613    0.192121373191866    0.959758429379869  0.0000
  O3     O3        0.280964346375509    0.723316942580554    0.935089452992255  0.0000
