data_c01327.vasp
_audit_creation_method             Generated by GULP
_audit_author_name                 Salvador R. G. Balestra
_symmetry_space_group_name_H-M     'P 1             '
_symmetry_Int_Tables_number        1

loop_
_symmetry_equiv_pos_site_id
_symmetry_equiv_pos_as_xyz
_cell_length_a                       17.0760
_cell_length_b                        7.6154
_cell_length_c                       10.2761
_cell_angle_alpha                   89.1541
_cell_angle_beta                    90.9726
_cell_angle_gamma                   90.1129

loop_
_atom_site_label
_atom_site_type_symbol
_atom_site_fract_x
_atom_site_fract_y
_atom_site_fract_z
_atom_site_charge
  Ge     Ge        0.160189999999943    0.293909999999983    0.273440000000051  0.0000
  Ge     Ge        0.140481807165103    0.716905456742211    0.273228042046777  0.0000
  Ge     Ge        0.846530917981009    0.707180650289696    0.016947933653710  0.0000
  Ge     Ge        0.161502442575191    0.308795668197494    0.960113437333278  0.0000
  Si     Si        0.038191330884079    0.020467359778739    0.363428049735922  0.0000
  Si     Si        0.445146711991102    0.041172899440101    0.360126914550773  0.0000
  Si     Si        0.933085087168277    0.029158868867902    0.609847130001792  0.0000
  Si     Si        0.535554491538125    0.041518333303131    0.631239488660220  0.0000
  Si     Si        0.552444047697706    0.021462351030942    0.116073813635260  0.0000
  Si     Si        0.946334311856980    0.024561645311227    0.098386499153720  0.0000
  Si     Si        0.433993918635581    0.047293702258849    0.882671258979006  0.0000
  Si     Si        0.049820819120066    0.028343596718571    0.851563378534343  0.0000
  Si     Si        0.324869193457394    0.754760628113313    0.278581720582278  0.0000
  Si     Si        0.822252855129374    0.320349139010716    0.706916247989891  0.0000
  Si     Si        0.652355978948719    0.746518536773752    0.721780110507979  0.0000
  Si     Si        0.831769422575131    0.725167270634434    0.707443268636810  0.0000
  Si     Si        0.642352588500216    0.343478676641731    0.715601852708711  0.0000
  Si     Si        0.339955118003391    0.353777351834627    0.276796697850325  0.0000
  Si     Si        0.647882847072103    0.336361181443642    0.018517011048443  0.0000
  Si     Si        0.340773244958466    0.366951071145627    0.968164994998884  0.0000
  Si     Si        0.140513923495921    0.718140252646725    0.968518297697857  0.0000
  Si     Si        0.321853522858877    0.758998617390932    0.973165848374896  0.0000
  Si     Si        0.662751848859372    0.733630204604131    0.026940566465704  0.0000
  Si     Si        0.828671765902383    0.302977730115550    0.011263710135345  0.0000
  O3     O3        0.110629459569467    0.152919158604897    0.375605815282780  0.0000
  O2     O2        0.377562772007316    0.893656433176262    0.356490827643835  0.0000
  O2     O2        0.873532328373071    0.192056977987216    0.620715241909367  0.0000
  O2     O2        0.596541427758395    0.881430368995409    0.644925155106979  0.0000
  O2     O2        0.885628915293253    0.846378262668990    0.616000810395001  0.0000
  O2     O2        0.582358669578089    0.225712752948129    0.633106478355471  0.0000
  O3     O3        0.073349150556354    0.826133952766507    0.365675174908971  0.0000
  O2     O2        0.407734043191333    0.234135190172916    0.341905681858234  0.0000
  O2     O2        0.973292457721400    0.044673422337152    0.471451572452275  0.0000
  O2     O2        0.489475845353032    0.026947812749730    0.496763681307333  0.0000
  O2     O2        0.996757183956280    0.069604710315216    0.225055718019082  0.0000
  O2     O2        0.507960708156985    0.006990597425552    0.250054468600756  0.0000
  O2     O2        0.000903682689369    0.034446212169170    0.718564893087924  0.0000
  O2     O2        0.471897604003670    0.031961037788991    0.743274288797750  0.0000
  O2     O2        0.593762232592135    0.211671996634131    0.105705699346135  0.0000
  O3     O3        0.917364133729766    0.824300369076827    0.099668747487377  0.0000
  O2     O2        0.406653279810003    0.247462247376451    0.903386357851987  0.0000
  O2     O2        0.086214039701971    0.833481577332066    0.870001081589258  0.0000
  O2     O2        0.360546053933572    0.913939205237439    0.888630994028008  0.0000
  O3     O3        0.116606931508387    0.174448094168603    0.847999116043407  0.0000
  O2     O2        0.616686364737975    0.867949514447093    0.115817460867441  0.0000
  O2     O2        0.868489599171410    0.145163775258969    0.092351558558414  0.0000
  O2     O2        0.494174610022054    0.988382352785791    0.995540548876078  0.0000
  O2     O2        0.996108561688188    0.077963169958535    0.972889146584622  0.0000
  O1     O1        0.120993090498202    0.499506846346523    0.284343195374234  0.0000
  O2     O2        0.358386045770157    0.558353921707742    0.304833297721380  0.0000
  O2     O2        0.850285156316286    0.520493630773594    0.682567185494288  0.0000
  O2     O2        0.622556364533940    0.548775246452779    0.694437352390854  0.0000
  O3     O3        0.256156475493191    0.303395642541550    0.331632998701072  0.0000
  O3     O3        0.235877202226813    0.763591503382685    0.323164109028493  0.0000
  O2     O2        0.730433954566666    0.303379603833512    0.669535649474607  0.0000
  O2     O2        0.741048629109043    0.766324191887245    0.672419627472778  0.0000
  O1     O1        0.158054321092568    0.225420033399573    0.115142438726829  0.0000
  O2     O2        0.327425482874493    0.804499486715388    0.125347043928562  0.0000
  O2     O2        0.834084843241227    0.266724505996988    0.857448308470909  0.0000
  O2     O2        0.653494408970306    0.787613366922638    0.874890848784453  0.0000
  O3     O3        0.851628461210640    0.770771927483566    0.855549644161617  0.0000
  O2     O2        0.632907192556350    0.291380643333127    0.867265972513156  0.0000
  O3     O3        0.128210213915830    0.788064975565747    0.113039526708109  0.0000
  O2     O2        0.334674455454335    0.323137977836306    0.121746764339493  0.0000
  O2     O2        0.627263708601451    0.538014071906513    0.047553036252044  0.0000
  O3     O3        0.868902634713050    0.488018504519507    0.040236126772779  0.0000
  O2     O2        0.363844822865653    0.572229772695889    0.946732492198698  0.0000
  O3     O3        0.118424731474735    0.515421659267051    0.959818802279469  0.0000
  O2     O2        0.738693858300228    0.305910700128798    0.054264135049875  0.0000
  O3     O3        0.752732547871246    0.740432608804456    0.069813985168980  0.0000
  O3     O3        0.256598800463640    0.328684270678132    0.906488556778946  0.0000
  O2     O2        0.231380289221940    0.743812593091777    0.930040128402172  0.0000
