data_c01362.vasp
_audit_creation_method             Generated by GULP
_audit_author_name                 Salvador R. G. Balestra
_symmetry_space_group_name_H-M     'P 1             '
_symmetry_Int_Tables_number        1

loop_
_symmetry_equiv_pos_site_id
_symmetry_equiv_pos_as_xyz
_cell_length_a                       17.0103
_cell_length_b                        7.6074
_cell_length_c                       10.3161
_cell_angle_alpha                   90.2836
_cell_angle_beta                    89.7905
_cell_angle_gamma                   90.0774

loop_
_atom_site_label
_atom_site_type_symbol
_atom_site_fract_x
_atom_site_fract_y
_atom_site_fract_z
_atom_site_charge
  Ge     Ge        0.160189999999943    0.293909999999983    0.273440000000051  0.0000
  Ge     Ge        0.682908934263624    0.226762830246951    0.012676153534846  0.0000
  Ge     Ge        0.182404564469287    0.693576114586965    0.957435524221779  0.0000
  Ge     Ge        0.659922024879709    0.639205220794709    0.022745781749501  0.0000
  Si     Si        0.055353781999861    0.986353579615491    0.357013190960615  0.0000
  Si     Si        0.459029801025701    0.974944373219784    0.367708747536943  0.0000
  Si     Si        0.957130509961455    0.983124181765532    0.614929914881556  0.0000
  Si     Si        0.558366048729673    0.969028869880959    0.626373576078216  0.0000
  Si     Si        0.569757585394023    0.954835788687700    0.124903589964917  0.0000
  Si     Si        0.961971995404515    0.969088825654921    0.093474858104899  0.0000
  Si     Si        0.460906486965934    0.972007509426676    0.885219325776592  0.0000
  Si     Si        0.072817421988828    0.975267744260626    0.855594357532981  0.0000
  Si     Si        0.354989065925265    0.667502626911982    0.274121442471134  0.0000
  Si     Si        0.854517181577743    0.291565211214637    0.696531570343992  0.0000
  Si     Si        0.661390407233569    0.663490893166369    0.717454014603708  0.0000
  Si     Si        0.841264079458552    0.691398490757835    0.708239133635749  0.0000
  Si     Si        0.675412189216489    0.254573705048847    0.706581607280540  0.0000
  Si     Si        0.174871928379125    0.707819174444476    0.263329140164720  0.0000
  Si     Si        0.344090801460306    0.266188912111058    0.283374565183211  0.0000
  Si     Si        0.845094480074985    0.680738532465062    0.012284592960891  0.0000
  Si     Si        0.346098377414932    0.257688486499816    0.979592141590525  0.0000
  Si     Si        0.365451577060585    0.653072766964870    0.970723962030392  0.0000
  Si     Si        0.163621894409137    0.287041021865117    0.968882818476625  0.0000
  Si     Si        0.865435047189744    0.285693745011535    0.000699677792843  0.0000
  O3     O3        0.093190217163581    0.178378816245125    0.364754392729418  0.0000
  O2     O2        0.412568244074363    0.791525255265401    0.355744693358382  0.0000
  O2     O2        0.913885670963676    0.172136279497794    0.612529436907229  0.0000
  O2     O2        0.602176521258644    0.780776077255049    0.632397346622996  0.0000
  O2     O2        0.891938977179789    0.831546051934033    0.629375231194099  0.0000
  O2     O2        0.621254128375703    0.128265969493372    0.618406695438196  0.0000
  O2     O2        0.126727114799851    0.846729558275821    0.350239957333410  0.0000
  O2     O2        0.398131769480069    0.136492395687979    0.366376223313743  0.0000
  O2     O2        0.002509842090578    0.950284475315138    0.482097601867909  0.0000
  O2     O2        0.505424249480079    0.974208908123487    0.500345710852986  0.0000
  O2     O2        0.000121175691955    0.962274934847585    0.233214794841500  0.0000
  O2     O2        0.521254708697530    0.999768522263134    0.252614663485849  0.0000
  O2     O2        0.019386080475857    0.976239953981117    0.730042439470044  0.0000
  O2     O2        0.500771556520596    0.998568891074010    0.747419956969074  0.0000
  O3     O3        0.649469333393055    0.066046452790343    0.114900188296730  0.0000
  O2     O2        0.891515729143221    0.828101582134714    0.092592364415810  0.0000
  O2     O2        0.388136451264716    0.106485608433954    0.896560866317137  0.0000
  O3     O3        0.140150527372477    0.830223534483088    0.845545657121822  0.0000
  O2     O2        0.430865806536284    0.770764559112230    0.898364109892804  0.0000
  O2     O2        0.111537296240748    0.167380890337881    0.873061600630164  0.0000
  O3     O3        0.593619191234584    0.752233251466051    0.118722803279866  0.0000
  O2     O2        0.931297927057871    0.166444106470925    0.067892312874226  0.0000
  O2     O2        0.522210085712542    0.019772064524332    0.997786381816501  0.0000
  O2     O2        0.023905814932339    0.914660074206460    0.982679815647639  0.0000
  O3     O3        0.139125090925361    0.514788658374868    0.279477851190012  0.0000
  O2     O2        0.375601323294055    0.465172482115070    0.303769048263243  0.0000
  O2     O2        0.874374985191363    0.496906061926099    0.675037974080497  0.0000
  O2     O2        0.643205094617780    0.454886418306266    0.704181161209409  0.0000
  O3     O3        0.254460292611900    0.254860212693315    0.328235765733697  0.0000
  O2     O2        0.265000628962526    0.705261999186470    0.313756062584853  0.0000
  O2     O2        0.765019749607252    0.252735868886311    0.653171016734759  0.0000
  O2     O2        0.750008061584590    0.702757006726063    0.667553945583975  0.0000
  O3     O3        0.150163039785371    0.223183282855970    0.114893120213474  0.0000
  O2     O2        0.366387829371585    0.707757179722916    0.122199074990030  0.0000
  O2     O2        0.864554200651048    0.243210363007235    0.847140150887935  0.0000
  O3     O3        0.650403319688020    0.717256798931063    0.866029319467637  0.0000
  O2     O2        0.845817588941469    0.733028573730509    0.860816483361189  0.0000
  O3     O3        0.674843937793879    0.176905996499584    0.850081433365199  0.0000
  O3     O3        0.174475325207928    0.768620112601343    0.114938204269171  0.0000
  O2     O2        0.348666247795632    0.211901132661524    0.131786103138368  0.0000
  O1     O1        0.637081477855920    0.423802670238671    0.038904986826982  0.0000
  O2     O2        0.886802637588681    0.490199099194651    0.027331500117675  0.0000
  O2     O2        0.387647107084077    0.446620590136106    0.954597925213015  0.0000
  O3     O3        0.140064755243044    0.487507935609021    0.950057353307979  0.0000
  O3     O3        0.780403471183317    0.246295778836591    0.056567930519539  0.0000
  O3     O3        0.757320873106518    0.671375790546167    0.065219632948161  0.0000
  O2     O2        0.256167066079711    0.267302912249319    0.934014014244211  0.0000
  O3     O3        0.280321102063967    0.685757227353917    0.913397057835521  0.0000
