data_c01350.vasp
_audit_creation_method             Generated by GULP
_audit_author_name                 Salvador R. G. Balestra
_symmetry_space_group_name_H-M     'P 1             '
_symmetry_Int_Tables_number        1

loop_
_symmetry_equiv_pos_site_id
_symmetry_equiv_pos_as_xyz
_cell_length_a                       16.9902
_cell_length_b                        7.6452
_cell_length_c                       10.3208
_cell_angle_alpha                   90.7348
_cell_angle_beta                    90.1543
_cell_angle_gamma                   90.1356

loop_
_atom_site_label
_atom_site_type_symbol
_atom_site_fract_x
_atom_site_fract_y
_atom_site_fract_z
_atom_site_charge
  Ge     Ge        0.160189999999943    0.293909999999983    0.273440000000051  0.0000
  Ge     Ge        0.677816676541464    0.250893964492113    0.009862707034550  0.0000
  Ge     Ge        0.840170411211853    0.700240494077910    0.006999464888204  0.0000
  Ge     Ge        0.173383187400780    0.688579696120624    0.956481139499928  0.0000
  Si     Si        0.054924576026064    0.991835944868873    0.358280375201496  0.0000
  Si     Si        0.457537265712361    0.976883071301736    0.359314313664845  0.0000
  Si     Si        0.951051560468696    0.985329350668633    0.609931316673229  0.0000
  Si     Si        0.553445674341475    0.968609837538108    0.622527683269582  0.0000
  Si     Si        0.566619389072496    0.967819949440300    0.112928527525787  0.0000
  Si     Si        0.955262997742118    0.986958627789443    0.097847056353894  0.0000
  Si     Si        0.452888951793545    0.976864906744971    0.877757540308827  0.0000
  Si     Si        0.062467529248615    0.971112591727259    0.856728914331739  0.0000
  Si     Si        0.350531285914743    0.672412147814591    0.267298048271782  0.0000
  Si     Si        0.849701234783820    0.295016301209967    0.696631129943800  0.0000
  Si     Si        0.657069543136752    0.660700358547501    0.709114755190480  0.0000
  Si     Si        0.837089645118431    0.696961059542389    0.699459547297386  0.0000
  Si     Si        0.669945619520049    0.258007731362333    0.702638787383071  0.0000
  Si     Si        0.169303616008084    0.705003902245050    0.262142012886153  0.0000
  Si     Si        0.344674166955682    0.272928661834349    0.274590002819364  0.0000
  Si     Si        0.340181070720917    0.264043500442311    0.970850650229355  0.0000
  Si     Si        0.357295812113807    0.658702213773235    0.963777061096426  0.0000
  Si     Si        0.157063830250362    0.283105878682308    0.968882342304757  0.0000
  Si     Si        0.655605421584518    0.649508413706205    0.012209873448819  0.0000
  Si     Si        0.862048503603167    0.301893487021691    0.000019773297734  0.0000
  O3     O3        0.098274529264832    0.176583215055827    0.371212588673800  0.0000
  O2     O2        0.406065744298881    0.800875547902383    0.349529486926476  0.0000
  O2     O2        0.907906191579915    0.173713737823261    0.612264963777245  0.0000
  O2     O2        0.596301772006453    0.780713012942949    0.631216010680293  0.0000
  O2     O2        0.886855254605158    0.830034539827347    0.612603481392362  0.0000
  O2     O2        0.617460397842455    0.124549370792542    0.617195821576845  0.0000
  O2     O2        0.121243310059364    0.841098652596228    0.351293006597477  0.0000
  O2     O2        0.401523554175538    0.146053465196201    0.353893868110726  0.0000
  O2     O2        0.998691297052546    0.960900047438113    0.478758224819403  0.0000
  O2     O2        0.502414160314226    0.974844433861073    0.493965573886594  0.0000
  O2     O2        0.002111345081656    0.984750534302333    0.230214408676336  0.0000
  O2     O2        0.521367617445234    0.984655132392230    0.246549078717018  0.0000
  O2     O2        0.011665811722219    0.973512286130709    0.727683362516622  0.0000
  O2     O2        0.494727795641371    0.998140419730767    0.741544249588100  0.0000
  O3     O3        0.640449732266235    0.096866520002688    0.112049982879221  0.0000
  O3     O3        0.881796317170019    0.857158495147521    0.105251310160127  0.0000
  O2     O2        0.381510352320042    0.114907763725995    0.884935567352141  0.0000
  O3     O3        0.127644230434427    0.822092176659039    0.847436657463683  0.0000
  O2     O2        0.420680257513367    0.778587951242051    0.890384423483747  0.0000
  O2     O2        0.103670600305059    0.159796581401306    0.876904115869715  0.0000
  O2     O2        0.595423541783875    0.768573238127877    0.094032200051775  0.0000
  O2     O2        0.926552646711269    0.184003484503116    0.071316421203337  0.0000
  O2     O2        0.512657391998252    0.028219829518404    0.992813197620466  0.0000
  O2     O2        0.008743653648623    0.916494581381658    0.979124269689334  0.0000
  O3     O3        0.135357291266744    0.511716814178163    0.279456837121501  0.0000
  O2     O2        0.374596662744619    0.472586882761035    0.295054428479594  0.0000
  O2     O2        0.869744687007385    0.499713958963242    0.676907166790194  0.0000
  O2     O2        0.636839642473750    0.455513659626045    0.688267295622306  0.0000
  O3     O3        0.255903892986844    0.259034055781281    0.323198309332018  0.0000
  O2     O2        0.260413393309863    0.703634646406134    0.308796104984561  0.0000
  O2     O2        0.760150710958404    0.254979968678015    0.652975974541823  0.0000
  O2     O2        0.745127084651175    0.701205618776012    0.659029535295895  0.0000
  O3     O3        0.147162241686249    0.221150952677489    0.115453422838604  0.0000
  O2     O2        0.359565865171603    0.712862469028642    0.115442554014761  0.0000
  O2     O2        0.859754248468714    0.249651657027054    0.847407227408336  0.0000
  O2     O2        0.651891130396774    0.706664368841890    0.861415319270566  0.0000
  O3     O3        0.845037026487623    0.760009589828802    0.846912233604150  0.0000
  O3     O3        0.668117392474592    0.192343604803055    0.848997524401695  0.0000
  O3     O3        0.165594018223185    0.764670770771437    0.114087624133383  0.0000
  O2     O2        0.346491991220884    0.219222297577332    0.122630785050775  0.0000
  O3     O3        0.631499441693147    0.450418733443530    0.030419844526783  0.0000
  O3     O3        0.887023003810961    0.500967189248123    0.021449937328985  0.0000
  O2     O2        0.379659322099307    0.453642230790916    0.944880903518840  0.0000
  O3     O3        0.132179703724420    0.481980307496563    0.950441355596570  0.0000
  O3     O3        0.775287553718040    0.269827889276253    0.054125484769074  0.0000
  O3     O3        0.744656906639418    0.678180918469232    0.058497232930464  0.0000
  O2     O2        0.249105499935259    0.268623160308910    0.929584739050820  0.0000
  O3     O3        0.270707677934559    0.687950707518673    0.909740658669749  0.0000
