data_c01300.vasp
_audit_creation_method             Generated by GULP
_audit_author_name                 Salvador R. G. Balestra
_symmetry_space_group_name_H-M     'P 1             '
_symmetry_Int_Tables_number        1

loop_
_symmetry_equiv_pos_site_id
_symmetry_equiv_pos_as_xyz
_cell_length_a                       17.1022
_cell_length_b                        7.6281
_cell_length_c                       10.2838
_cell_angle_alpha                   91.6569
_cell_angle_beta                    90.8651
_cell_angle_gamma                   89.8134

loop_
_atom_site_label
_atom_site_type_symbol
_atom_site_fract_x
_atom_site_fract_y
_atom_site_fract_z
_atom_site_charge
  Ge     Ge        0.160189999999943    0.293909999999983    0.273440000000051  0.0000
  Ge     Ge        0.836796080648678    0.684796669162748    0.697412805145479  0.0000
  Ge     Ge        0.138505003974434    0.682210146481595    0.959735915714281  0.0000
  Ge     Ge        0.823787504903450    0.291606565303508    0.011875814853924  0.0000
  Si     Si        0.044491381303972    0.009187366717938    0.357638187971135  0.0000
  Si     Si        0.446888977452500    0.021048561536425    0.345475586410134  0.0000
  Si     Si        0.938819385398675    0.988700981433705    0.604800107216377  0.0000
  Si     Si        0.536990342035454    0.004275451827263    0.615441198973680  0.0000
  Si     Si        0.550239375237677    0.019410055319818    0.097373286419166  0.0000
  Si     Si        0.936944135954652    0.009715853655769    0.104819920947667  0.0000
  Si     Si        0.431299889854466    0.997348137803125    0.863466921877632  0.0000
  Si     Si        0.041065167364782    0.995197335903469    0.859679634064680  0.0000
  Si     Si        0.328348002213883    0.728342174971617    0.255094204868892  0.0000
  Si     Si        0.822313787208558    0.271703030077529    0.704490242593222  0.0000
  Si     Si        0.653782242563630    0.713793342198106    0.696570509614681  0.0000
  Si     Si        0.643341644252121    0.313502842564112    0.704162134216288  0.0000
  Si     Si        0.148401438924426    0.706255043083782    0.267182470031917  0.0000
  Si     Si        0.342824675880108    0.327544431893777    0.265059991658168  0.0000
  Si     Si        0.642081623535096    0.335629147643049    0.009870627412974  0.0000
  Si     Si        0.842722159686168    0.696086719285435    0.003431266655503  0.0000
  Si     Si        0.334810852641549    0.313795170286129    0.960546959843104  0.0000
  Si     Si        0.321043145136392    0.708536332389712    0.949635733638726  0.0000
  Si     Si        0.154732223765540    0.274246838337216    0.966105195111381  0.0000
  Si     Si        0.661134605450474    0.728793023656789    0.001871239064190  0.0000
  O3     O3        0.104095823993194    0.169649553185652    0.372295444098627  0.0000
  O2     O2        0.380467891790323    0.872954836916876    0.330036737404864  0.0000
  O2     O2        0.868350070257434    0.129323367703786    0.616392953819847  0.0000
  O2     O2        0.597880507357186    0.843099098518273    0.617839878050939  0.0000
  O3     O3        0.901813770816716    0.796782602000687    0.605057176502763  0.0000
  O2     O2        0.583151817466639    0.187537021410705    0.626864006075432  0.0000
  O2     O2        0.094953197767784    0.830015866421567    0.359386778577143  0.0000
  O2     O2        0.407137995491456    0.213073485925634    0.340752026345225  0.0000
  O2     O2        0.982173579809654    0.014303251397485    0.470798828256838  0.0000
  O2     O2        0.489671334989551    0.997489075123514    0.481648212770130  0.0000
  O2     O2        0.997553543364510    0.024448554788562    0.222500783316821  0.0000
  O2     O2        0.511565895042519    0.997863961563553    0.235532470682019  0.0000
  O2     O2        0.001806832186020    0.021468846934963    0.720065634574344  0.0000
  O2     O2        0.475318435593413    0.986739105316417    0.728973374879467  0.0000
  O2     O2        0.579945591520856    0.219027612866818    0.085105036675383  0.0000
  O2     O2        0.897606955978599    0.817143646310154    0.097632594875642  0.0000
  O2     O2        0.389137236745843    0.185880987167790    0.875352313490335  0.0000
  O3     O3        0.070111070211112    0.796379426347364    0.871378136027082  0.0000
  O2     O2        0.368222056062054    0.841842978657711    0.863028195884599  0.0000
  O2     O2        0.115296344309256    0.124875866611486    0.873654617663294  0.0000
  O2     O2        0.622565989022128    0.883910989047618    0.087365914136351  0.0000
  O3     O3        0.870717687127265    0.156386099430640    0.118205702940923  0.0000
  O2     O2        0.489888414315178    0.967272893604957    0.983067184965030  0.0000
  O2     O2        0.980319657684947    0.051536497702681    0.971086615813766  0.0000
  O3     O3        0.126544347551469    0.506669082392553    0.286874637865062  0.0000
  O2     O2        0.362036979019556    0.534489445076208    0.282981814501247  0.0000
  O3     O3        0.857269431958444    0.463611791356884    0.687407825129394  0.0000
  O2     O2        0.622312385488988    0.514966842961143    0.675517320565039  0.0000
  O3     O3        0.257681644014008    0.288489930198198    0.318745681842315  0.0000
  O2     O2        0.239656240967594    0.740082459253410    0.305544936147930  0.0000
  O2     O2        0.731341821872647    0.273093722761093    0.657863833563410  0.0000
  O3     O3        0.741728332974838    0.724480234284874    0.647469242184513  0.0000
  O3     O3        0.151236321514688    0.217736959507814    0.114583680175340  0.0000
  O2     O2        0.326496858881705    0.765763674302208    0.101885394942335  0.0000
  O3     O3        0.826731537156685    0.214635453486322    0.853019911391532  0.0000
  O2     O2        0.654064707957982    0.769587076341650    0.849412632323074  0.0000
  O3     O3        0.852291795307497    0.756476404593492    0.856602011782766  0.0000
  O2     O2        0.638319624864313    0.279603438756016    0.857436923208369  0.0000
  O3     O3        0.133630607133849    0.757629260873504    0.118765227635579  0.0000
  O2     O2        0.346145309037402    0.272351356244159    0.112334481502801  0.0000
  O2     O2        0.620504727464723    0.541961784975958    0.029354734435723  0.0000
  O3     O3        0.866986011341639    0.496435306835793    0.019485328452082  0.0000
  O2     O2        0.357864841260489    0.513472432487696    0.931500551509240  0.0000
  O3     O3        0.114465709660966    0.462416377180980    0.949831370429925  0.0000
  O3     O3        0.728484508541775    0.303041065283604    0.063321411415267  0.0000
  O2     O2        0.751909323069019    0.718330829636765    0.042823140551704  0.0000
  O2     O2        0.244434221853729    0.287244904730534    0.921457089620537  0.0000
  O3     O3        0.231792556988033    0.710713654981413    0.903012890964953  0.0000
