data_c01373.vasp
_audit_creation_method             Generated by GULP
_audit_author_name                 Salvador R. G. Balestra
_symmetry_space_group_name_H-M     'P 1             '
_symmetry_Int_Tables_number        1

loop_
_symmetry_equiv_pos_site_id
_symmetry_equiv_pos_as_xyz
_cell_length_a                       17.0677
_cell_length_b                        7.6457
_cell_length_c                       10.2477
_cell_angle_alpha                   89.7088
_cell_angle_beta                    89.9306
_cell_angle_gamma                   89.9467

loop_
_atom_site_label
_atom_site_type_symbol
_atom_site_fract_x
_atom_site_fract_y
_atom_site_fract_z
_atom_site_charge
  Ge     Ge        0.160189999999943    0.293909999999983    0.273440000000051  0.0000
  Ge     Ge        0.839544387151768    0.655826168465234    0.014858468580757  0.0000
  Ge     Ge        0.337137607392439    0.254211410375875    0.951749759439872  0.0000
  Ge     Ge        0.652074367704371    0.633695383283217    0.003772554541130  0.0000
  Si     Si        0.055520096652522    0.985666925144610    0.349954607899343  0.0000
  Si     Si        0.457597100490717    0.971837341594694    0.348340942667217  0.0000
  Si     Si        0.956363232569440    0.963770004731612    0.606735656269277  0.0000
  Si     Si        0.558874286992152    0.957630190301273    0.605695606288390  0.0000
  Si     Si        0.556629692098354    0.954017888747883    0.095174191149413  0.0000
  Si     Si        0.947894342466653    0.951240219771793    0.099594079432865  0.0000
  Si     Si        0.447655299711287    0.967402392034197    0.853390769511709  0.0000
  Si     Si        0.059368441029926    0.970371382132911    0.859186623073431  0.0000
  Si     Si        0.352813222477635    0.668538125670431    0.251575575853226  0.0000
  Si     Si        0.850973914248127    0.265561344545339    0.693425169024994  0.0000
  Si     Si        0.663355814050877    0.652562925034026    0.691200291262671  0.0000
  Si     Si        0.842849469623266    0.670258592195150    0.703139304732261  0.0000
  Si     Si        0.670345885235142    0.250191142807248    0.685390294864954  0.0000
  Si     Si        0.171623126545708    0.699874649899057    0.259477187114617  0.0000
  Si     Si        0.342550815585560    0.263586642858325    0.263482506028578  0.0000
  Si     Si        0.666585819079720    0.235816987301407    0.988830412458173  0.0000
  Si     Si        0.170128630304761    0.682261849076986    0.955201214523055  0.0000
  Si     Si        0.352400471308633    0.656302806275539    0.949977043799767  0.0000
  Si     Si        0.154523804068902    0.284722675856113    0.960098524379089  0.0000
  Si     Si        0.849700458291992    0.258553600400418    0.994600337338410  0.0000
  O3     O3        0.094823187568820    0.173627981659511    0.364858004598730  0.0000
  O2     O2        0.410104896270965    0.790648132417355    0.334290390971397  0.0000
  O2     O2        0.908240610789695    0.146446683666835    0.606647663776144  0.0000
  O2     O2        0.607641272460532    0.776860921839630    0.604056257574032  0.0000
  O2     O2        0.898074317994415    0.800215273597797    0.621648779484992  0.0000
  O2     O2        0.618742459946171    0.121220825638830    0.597219725034273  0.0000
  O2     O2        0.126716702526903    0.846592717272475    0.341607205971680  0.0000
  O2     O2        0.399626022650725    0.137879859192799    0.346443628610350  0.0000
  O2     O2        0.998682551272674    0.941756111093040    0.468949708728778  0.0000
  O2     O2        0.500749150447245    0.965085323483279    0.485349129606364  0.0000
  O2     O2        0.005811711236896    0.978928244521108    0.218061267020104  0.0000
  O2     O2        0.523057449575145    0.993871207868053    0.237303181186862  0.0000
  O2     O2        0.023026001173321    0.964376706027948    0.716235307611224  0.0000
  O2     O2        0.507296861049828    0.970877682864400    0.735234541313621  0.0000
  O2     O2        0.633851654730679    0.073371283720465    0.071902125936735  0.0000
  O3     O3        0.893297161475548    0.784839177833715    0.118436114352754  0.0000
  O3     O3        0.382647532834345    0.115975300001239    0.844390323008658  0.0000
  O2     O2        0.128036582721176    0.825060965213224    0.864357286861876  0.0000
  O2     O2        0.405380439292506    0.778569855427854    0.858129887316177  0.0000
  O2     O2        0.091929610406226    0.165183973541668    0.883997978291799  0.0000
  O3     O3        0.581786457542527    0.753936383860877    0.084179081243374  0.0000
  O2     O2        0.892780963235867    0.121390292371594    0.087360683582068  0.0000
  O2     O2        0.492531311004531    0.009623228935516    0.988096176457422  0.0000
  O2     O2        0.994833901235605    0.918257246373150    0.965694639307760  0.0000
  O3     O3        0.137420142524433    0.511560434092165    0.293935715935883  0.0000
  O2     O2        0.373202333550594    0.464416433576263    0.272233427632802  0.0000
  O2     O2        0.872196432235751    0.470554911235748    0.680842715770146  0.0000
  O2     O2        0.641918756725055    0.449667565151062    0.664138288543934  0.0000
  O3     O3        0.255679485566177    0.255864777857641    0.321303926005524  0.0000
  O2     O2        0.263655191051670    0.704995818012759    0.295704288901008  0.0000
  O2     O2        0.761777727225797    0.233272757661027    0.647273637530626  0.0000
  O2     O2        0.753676956592058    0.687275169193652    0.651550799032086  0.0000
  O3     O3        0.151698696971165    0.236125967016467    0.111905760125976  0.0000
  O2     O2        0.364036247115932    0.717992577056709    0.099573992928634  0.0000
  O2     O2        0.862193582808963    0.204928168016514    0.843475866961426  0.0000
  O3     O3        0.650938047243509    0.696478136443159    0.841666300345958  0.0000
  O3     O3        0.843987550688692    0.722280237837464    0.853435734876061  0.0000
  O2     O2        0.659086705824528    0.192786545408855    0.835466499236284  0.0000
  O2     O2        0.162019448793515    0.740188353064083    0.105462720390060  0.0000
  O3     O3        0.341789099985192    0.198899120639176    0.114641438387575  0.0000
  O3     O3        0.623790254122971    0.416561468154284    0.019141436637209  0.0000
  O3     O3        0.880953597846404    0.449609189416005    0.023465372461756  0.0000
  O3     O3        0.378255969045616    0.459119617872674    0.931129196170160  0.0000
  O2     O2        0.132072804849794    0.489992682327328    0.938736884129676  0.0000
  O2     O2        0.757212509260794    0.263825855257268    0.025934263233344  0.0000
  O1     O1        0.744010528499527    0.664278064059933    0.064250955615653  0.0000
  O3     O3        0.240423281441234    0.252601495748165    0.904395214020210  0.0000
  O2     O2        0.260826099968983    0.675251833024181    0.913225511922975  0.0000
