data_c01343.vasp
_audit_creation_method             Generated by GULP
_audit_author_name                 Salvador R. G. Balestra
_symmetry_space_group_name_H-M     'P 1             '
_symmetry_Int_Tables_number        1

loop_
_symmetry_equiv_pos_site_id
_symmetry_equiv_pos_as_xyz
_cell_length_a                       17.2118
_cell_length_b                        7.6623
_cell_length_c                       10.1510
_cell_angle_alpha                   90.9026
_cell_angle_beta                    89.6057
_cell_angle_gamma                   88.9197

loop_
_atom_site_label
_atom_site_type_symbol
_atom_site_fract_x
_atom_site_fract_y
_atom_site_fract_z
_atom_site_charge
  Ge     Ge        0.160189999999943    0.293909999999983    0.273440000000051  0.0000
  Ge     Ge        0.349862163900028    0.262865514771659    0.271239179749509  0.0000
  Ge     Ge        0.856720771428442    0.643087830185857    0.010815186333735  0.0000
  Ge     Ge        0.162001421981464    0.285243819179569    0.954054169411743  0.0000
  Si     Si        0.056920131804978    0.992283638995839    0.361812278367269  0.0000
  Si     Si        0.463983653624977    0.967607972779353    0.348116746583672  0.0000
  Si     Si        0.958205083689017    0.938998001922733    0.617370364056541  0.0000
  Si     Si        0.563055047519930    0.960500646411912    0.604133446721793  0.0000
  Si     Si        0.566248598814315    0.975370050518241    0.089480204922925  0.0000
  Si     Si        0.954949383546324    0.952226581462249    0.112615385364577  0.0000
  Si     Si        0.454215110064547    0.954375623164538    0.848570018971269  0.0000
  Si     Si        0.065179845982088    0.977097320939120    0.866404956975594  0.0000
  Si     Si        0.354879443073126    0.672034418004195    0.263043026550855  0.0000
  Si     Si        0.846983732109096    0.241245878872048    0.695694408819535  0.0000
  Si     Si        0.674354056695250    0.662766565788932    0.702253068610432  0.0000
  Si     Si        0.852665589078320    0.643809398769239    0.695884290518848  0.0000
  Si     Si        0.667643399570533    0.261827893004721    0.699570443463967  0.0000
  Si     Si        0.175126566544570    0.697124852721243    0.259486721255248  0.0000
  Si     Si        0.667163500849747    0.274610464214607    0.006375690891596  0.0000
  Si     Si        0.348453725042648    0.251354799843011    0.960059900792055  0.0000
  Si     Si        0.178192275475051    0.681634764635364    0.948051245685813  0.0000
  Si     Si        0.357280939249850    0.652359773037726    0.954750169463666  0.0000
  Si     Si        0.674045193269688    0.668190540547112    0.012403642326573  0.0000
  Si     Si        0.847469880088200    0.242174680656516    0.003346485260687  0.0000
  O3     O3        0.095647199813930    0.178999064355860    0.369515288477635  0.0000
  O2     O2        0.409547360830717    0.798752632414635    0.345986591389275  0.0000
  O2     O2        0.900719218253544    0.108235090833605    0.609851756002180  0.0000
  O2     O2        0.620148668207426    0.794589338365946    0.622769643083702  0.0000
  O2     O2        0.908160026211964    0.763045852928327    0.607307976496248  0.0000
  O2     O2        0.610708932096123    0.139231111140877    0.617335502727472  0.0000
  O2     O2        0.125266386541185    0.854164091264685    0.323271179259479  0.0000
  O3     O3        0.409083704261825    0.136054229862600    0.368891591545008  0.0000
  O2     O2        0.020422022126386    0.940863198207228    0.500783360854794  0.0000
  O2     O2        0.529105366276659    0.949413299576149    0.458482900957380  0.0000
  O2     O2        0.987467810077095    0.987058590697614    0.257137185342026  0.0000
  O2     O2        0.506944456890541    0.981881085102827    0.208701813097723  0.0000
  O2     O2        0.004987172161731    0.937611313045748    0.752796492902119  0.0000
  O2     O2        0.490144567018615    0.957162435747098    0.703073414547039  0.0000
  O2     O2        0.617783214633087    0.149034496445793    0.097498024575383  0.0000
  O3     O3        0.921233923607993    0.759989925042093    0.102893821670936  0.0000
  O2     O2        0.393456255689072    0.115357604107956    0.862854391143053  0.0000
  O2     O2        0.132289857505799    0.828086799529971    0.868444855399953  0.0000
  O2     O2        0.413430016340842    0.768381818941967    0.867011618098288  0.0000
  O3     O3        0.106038741973266    0.160139969161532    0.849843038095405  0.0000
  O2     O2        0.621501877764210    0.803890808315774    0.096777431877717  0.0000
  O2     O2        0.884344163694684    0.088339069344581    0.087712417110249  0.0000
  O2     O2        0.522833614221403    0.974456907765375    0.951500628234108  0.0000
  O2     O2        0.022744802321647    0.980021986437429    0.007421484906878  0.0000
  O3     O3        0.155493948207445    0.512810686374850    0.320850132442503  0.0000
  O3     O3        0.364146634610038    0.478776444384978    0.314657122924960  0.0000
  O2     O2        0.873443746640798    0.439152129746913    0.670405492334600  0.0000
  O2     O2        0.647192418671672    0.464911455373786    0.673444418703623  0.0000
  O1     O1        0.253802501909655    0.219630341408821    0.293090482350022  0.0000
  O2     O2        0.265721967139234    0.739331544479133    0.280923945183124  0.0000
  O2     O2        0.756868251718645    0.219979801976123    0.656884460619408  0.0000
  O2     O2        0.763395928431210    0.681452652542258    0.655235930438107  0.0000
  O1     O1        0.131295436236922    0.268523871776239    0.113206767397620  0.0000
  O2     O2        0.377668911865615    0.678610192919991    0.108227375599899  0.0000
  O2     O2        0.858111160800926    0.195406819003463    0.848569926085593  0.0000
  O2     O2        0.670041657813059    0.709949207304350    0.857095514269162  0.0000
  O3     O3        0.865265310157091    0.695330870313489    0.847125361489552  0.0000
  O2     O2        0.656015003910710    0.222440328665916    0.853467113883222  0.0000
  O2     O2        0.157490782714513    0.682354470774652    0.103556572721342  0.0000
  O3     O3        0.376143597401090    0.224652015764307    0.108376808995176  0.0000
  O2     O2        0.640654275885441    0.474588427772856    0.034836555591552  0.0000
  O3     O3        0.884694660461793    0.427315282328493    0.032780003867607  0.0000
  O2     O2        0.367157481485185    0.448880184879147    0.914639916019652  0.0000
  O3     O3        0.155308045967275    0.493903222706746    0.893238946275856  0.0000
  O2     O2        0.757194198002932    0.255216836792447    0.042722156413571  0.0000
  O3     O3        0.761837856249201    0.679610298128959    0.060363674344181  0.0000
  O3     O3        0.257862794805153    0.217017974316358    0.951871092432024  0.0000
  O2     O2        0.269328462223115    0.715899401915328    0.928346165625191  0.0000
