data_c01370.vasp
_audit_creation_method             Generated by GULP
_audit_author_name                 Salvador R. G. Balestra
_symmetry_space_group_name_H-M     'P 1             '
_symmetry_Int_Tables_number        1

loop_
_symmetry_equiv_pos_site_id
_symmetry_equiv_pos_as_xyz
_cell_length_a                       17.1105
_cell_length_b                        7.6379
_cell_length_c                       10.2784
_cell_angle_alpha                   90.8076
_cell_angle_beta                    90.1091
_cell_angle_gamma                   89.7615

loop_
_atom_site_label
_atom_site_type_symbol
_atom_site_fract_x
_atom_site_fract_y
_atom_site_fract_z
_atom_site_charge
  Ge     Ge        0.160189999999943    0.293909999999983    0.273440000000051  0.0000
  Ge     Ge        0.842438044563921    0.670149781788658    0.005982433844479  0.0000
  Ge     Ge        0.337338769668595    0.229852455781167    0.955230697600795  0.0000
  Ge     Ge        0.174393239044125    0.684601309220254    0.951121174625261  0.0000
  Si     Si        0.057960165690392    0.985874923090688    0.350968260165724  0.0000
  Si     Si        0.459622774298269    0.961193015500802    0.347280084933798  0.0000
  Si     Si        0.954312138624819    0.960553751522832    0.601409525847743  0.0000
  Si     Si        0.558968929103193    0.952714875235316    0.606986156318125  0.0000
  Si     Si        0.560609721363460    0.968152794336751    0.094234271505495  0.0000
  Si     Si        0.952349905650453    0.959408728319771    0.097472505747243  0.0000
  Si     Si        0.450304416777699    0.946993215850002    0.855657688642389  0.0000
  Si     Si        0.058742078508395    0.967614195918099    0.853873416519944  0.0000
  Si     Si        0.355419064089686    0.652805943781425    0.252121117331260  0.0000
  Si     Si        0.849725809894082    0.262941328069002    0.693267369931948  0.0000
  Si     Si        0.664936742432081    0.651036918215562    0.692184150880552  0.0000
  Si     Si        0.844571268440331    0.668139142753312    0.696784909770172  0.0000
  Si     Si        0.669004060934477    0.250104014505056    0.692237782934497  0.0000
  Si     Si        0.173957885734681    0.697761789607974    0.260758520225645  0.0000
  Si     Si        0.344912654665555    0.250974841817738    0.263632425230858  0.0000
  Si     Si        0.669933743733762    0.254851272710706    0.994934843507017  0.0000
  Si     Si        0.356803003727911    0.636915517978469    0.948341603990753  0.0000
  Si     Si        0.153825354482769    0.278282514175721    0.963215526661214  0.0000
  Si     Si        0.658983321176141    0.652726727050751    0.997755720599482  0.0000
  Si     Si        0.852477667533566    0.265566840438879    0.994622385530843  0.0000
  O3     O3        0.097466408589414    0.173720163789865    0.367628046471875  0.0000
  O2     O2        0.413182389842460    0.779076972293031    0.331674506225272  0.0000
  O2     O2        0.903654918223239    0.139717790742072    0.602840688653125  0.0000
  O2     O2        0.609441084898269    0.774077393528165    0.606961944560294  0.0000
  O2     O2        0.898219830709457    0.792521392200779    0.609996432731335  0.0000
  O2     O2        0.617065962654850    0.118609970156677    0.606070231500145  0.0000
  O2     O2        0.129005996485549    0.846043123071799    0.344418060468906  0.0000
  O2     O2        0.399613849516828    0.124559884319063    0.349644572459352  0.0000
  O2     O2        0.999497220304205    0.943092013476670    0.466395898121285  0.0000
  O2     O2        0.504364943940872    0.957271118556314    0.482682233858736  0.0000
  O2     O2        0.009720087999560    0.979386202811586    0.217479100700168  0.0000
  O2     O2        0.524198786889287    0.981343676874937    0.236213120458625  0.0000
  O2     O2        0.017723220496617    0.966416945145127    0.715021364946085  0.0000
  O2     O2        0.504456147772140    0.961796643587351    0.732105272192475  0.0000
  O2     O2        0.627044296183067    0.116466990623489    0.084989795922753  0.0000
  O3     O3        0.892079080593597    0.802505860413103    0.113436406076305  0.0000
  O3     O3        0.379297291666218    0.082498535124239    0.848867044910633  0.0000
  O3     O3        0.127292267027850    0.825777162378880    0.849673584897809  0.0000
  O2     O2        0.419561367144423    0.748206187945051    0.867259280218004  0.0000
  O2     O2        0.091014693855489    0.161694537318820    0.883927782618538  0.0000
  O2     O2        0.597666606268472    0.775396321147277    0.073557234950233  0.0000
  O2     O2        0.903486758808987    0.138620006608369    0.082798129588043  0.0000
  O2     O2        0.495640395726243    0.007749264630965    0.986303360587583  0.0000
  O2     O2        0.999703550120563    0.908507335925427    0.966681645763580  0.0000
  O3     O3        0.155151018018710    0.510675073801681    0.320608875166151  0.0000
  O2     O2        0.360623554320366    0.454680031992715    0.304084121150689  0.0000
  O2     O2        0.871825141679726    0.466333991942368    0.675822876920141  0.0000
  O2     O2        0.642029669499197    0.449033215607267    0.665237442744519  0.0000
  O3     O3        0.254254933825528    0.213769276027821    0.287392287936261  0.0000
  O2     O2        0.267531242257871    0.727025195475066    0.266914883902807  0.0000
  O2     O2        0.759823508106072    0.229043800304351    0.654046993342975  0.0000
  O2     O2        0.754434109574527    0.685066855952090    0.651711160361493  0.0000
  O3     O3        0.129855872232050    0.282600538371834    0.113747240722949  0.0000
  O2     O2        0.379522196634261    0.650173818061675    0.101152776378303  0.0000
  O2     O2        0.863912385667623    0.210996615860421    0.843118256867351  0.0000
  O2     O2        0.655106408765865    0.697067736815926    0.844637790050622  0.0000
  O3     O3        0.852384298319042    0.728848187302402    0.845338440565420  0.0000
  O2     O2        0.658086639574848    0.203172411677163    0.843539048671170  0.0000
  O3     O3        0.147205606674834    0.711764108640450    0.111658561310652  0.0000
  O3     O3        0.367091813590031    0.213412557426467    0.114547271446088  0.0000
  O2     O2        0.635843598092521    0.449866959302358    0.020497991968484  0.0000
  O3     O3        0.879398224259871    0.461178792423935    0.021301027010644  0.0000
  O3     O3        0.356925303937967    0.438516849461199    0.900305115384521  0.0000
  O3     O3        0.154942448755401    0.470804005154872    0.905080569616573  0.0000
  O2     O2        0.761195580371899    0.250484406290368    0.031034103261630  0.0000
  O3     O3        0.745509896693791    0.684319118333502    0.049333242315483  0.0000
  O3     O3        0.238646589846580    0.190021693552339    0.951472174165992  0.0000
  O3     O3        0.272327362469385    0.723990078155460    0.931866614471885  0.0000
