data_c01348.vasp
_audit_creation_method             Generated by GULP
_audit_author_name                 Salvador R. G. Balestra
_symmetry_space_group_name_H-M     'P 1             '
_symmetry_Int_Tables_number        1

loop_
_symmetry_equiv_pos_site_id
_symmetry_equiv_pos_as_xyz
_cell_length_a                       17.0500
_cell_length_b                        7.6501
_cell_length_c                       10.2675
_cell_angle_alpha                   92.4605
_cell_angle_beta                    90.5988
_cell_angle_gamma                   90.4393

loop_
_atom_site_label
_atom_site_type_symbol
_atom_site_fract_x
_atom_site_fract_y
_atom_site_fract_z
_atom_site_charge
  Ge     Ge        0.160189999999943    0.293909999999983    0.273440000000051  0.0000
  Ge     Ge        0.350197212871389    0.315271454204264    0.270027777187677  0.0000
  Ge     Ge        0.149695116754313    0.648468112992826    0.935210181413996  0.0000
  Ge     Ge        0.336228559371791    0.666898413090464    0.928937055284947  0.0000
  Si     Si        0.047637512104630    0.002192023932966    0.346434499622731  0.0000
  Si     Si        0.454142560389872    0.012579801556907    0.346404822610736  0.0000
  Si     Si        0.949348956936243    0.983999499361597    0.602392170516029  0.0000
  Si     Si        0.550727513963277    0.986842826125784    0.605260260206962  0.0000
  Si     Si        0.555250072621169    0.998110467736052    0.092024675524701  0.0000
  Si     Si        0.944877356133755    0.002140913646075    0.089055511969613  0.0000
  Si     Si        0.440383913649466    0.969190677954846    0.849599576849350  0.0000
  Si     Si        0.057109017490192    0.966005777245166    0.847534898291767  0.0000
  Si     Si        0.336960126990790    0.721123915130298    0.238874184216140  0.0000
  Si     Si        0.838222601944439    0.282031653168331    0.692163110386586  0.0000
  Si     Si        0.662210871753807    0.695478233647741    0.694607654480117  0.0000
  Si     Si        0.843594688314233    0.684125069887669    0.697762086540096  0.0000
  Si     Si        0.657460945427559    0.293871952551479    0.686670281885942  0.0000
  Si     Si        0.155523398378945    0.700105685868562    0.244315137027907  0.0000
  Si     Si        0.654697025251161    0.303818447134320    0.991204100630576  0.0000
  Si     Si        0.844774025431654    0.687398881655693    0.001527375545082  0.0000
  Si     Si        0.345643336395223    0.275686216003730    0.965480306149967  0.0000
  Si     Si        0.160689839332926    0.254023511184499    0.968372538084326  0.0000
  Si     Si        0.663319262884564    0.701938080589389    0.998767508870821  0.0000
  Si     Si        0.835857546298413    0.289476537907150    0.996652775580090  0.0000
  O3     O3        0.101131120223146    0.172896188562739    0.371816114695414  0.0000
  O2     O2        0.383419035425293    0.875339339433515    0.317698963138481  0.0000
  O2     O2        0.891714503461989    0.150183537086376    0.607947306458284  0.0000
  O2     O2        0.608585405390700    0.821778166573444    0.612350587858867  0.0000
  O2     O2        0.900030723364120    0.805724305669781    0.617216799403427  0.0000
  O2     O2        0.601825823748025    0.165145860823330    0.599158034696594  0.0000
  O2     O2        0.104551873908068    0.836677104021639    0.329562279180717  0.0000
  O3     O3        0.415974360795616    0.202209748336596    0.363348299893532  0.0000
  O2     O2        0.989112938279945    0.971059496673636    0.463267880684768  0.0000
  O2     O2        0.498286987671679    0.960320166873546    0.477020595841420  0.0000
  O2     O2        0.995134295833816    0.029153611247743    0.218629260219372  0.0000
  O2     O2        0.517921550216353    0.006225922612563    0.232889812287830  0.0000
  O2     O2        0.017129555017942    0.008140217033786    0.710924007421646  0.0000
  O2     O2        0.494568743658960    0.002920121532641    0.728248304187228  0.0000
  O2     O2        0.597628346875562    0.183716229024437    0.071756871184890  0.0000
  O2     O2        0.900397006316988    0.814646686041510    0.089943505261631  0.0000
  O2     O2        0.378765738776525    0.127727650444054    0.865668014380736  0.0000
  O3     O3        0.083968562709072    0.767233787268648    0.845316882913984  0.0000
  O3     O3        0.392739471146153    0.790803721738732    0.828586415099315  0.0000
  O2     O2        0.133109776056544    0.093521568503695    0.870926498164836  0.0000
  O2     O2        0.617255057829936    0.840332496848816    0.088978923074086  0.0000
  O2     O2        0.882391320209044    0.158670083713262    0.085570271764088  0.0000
  O2     O2        0.490655210840027    0.956770727890645    0.981783218024521  0.0000
  O2     O2        0.998075673868839    0.014467265931847    0.963388658295528  0.0000
  O3     O3        0.127464124989626    0.506138596217583    0.273014338965559  0.0000
  O3     O3        0.373904398108186    0.534822879656264    0.268463908452254  0.0000
  O2     O2        0.863406342644621    0.481127869078479    0.665368374316037  0.0000
  O2     O2        0.637348381117458    0.494760352436978    0.659318219561549  0.0000
  O1     O1        0.256286836631484    0.287737120721415    0.322549362568558  0.0000
  O2     O2        0.246928056237842    0.719576480725623    0.287703050049717  0.0000
  O2     O2        0.747475542804348    0.253942636174995    0.650813353008841  0.0000
  O2     O2        0.753433893215903    0.723347398743935    0.660772186896410  0.0000
  O3     O3        0.150975452902665    0.202554429396668    0.116324313235511  0.0000
  O3     O3        0.336521359858232    0.755906948921484    0.086681834510690  0.0000
  O2     O2        0.848565879769522    0.242181171480112    0.844078995346073  0.0000
  O2     O2        0.649516965539963    0.741841275086410    0.847409871598848  0.0000
  O2     O2        0.858731445584834    0.728099886545882    0.850762031937019  0.0000
  O2     O2        0.643030767888057    0.257588548219900    0.837955063605239  0.0000
  O3     O3        0.147192878709657    0.737256179238202    0.092908648874865  0.0000
  O3     O3        0.362430240040702    0.227190453651686    0.112640361335342  0.0000
  O2     O2        0.633022762599101    0.505896167138539    0.024052981076448  0.0000
  O2     O2        0.866279033110740    0.487447369404989    0.028848536372740  0.0000
  O3     O3        0.379686670932583    0.463405953431430    0.931716029191547  0.0000
  O3     O3        0.117329321848206    0.433192443325553    0.936799671109610  0.0000
  O2     O2        0.744549472974735    0.271091578089732    0.031261703494638  0.0000
  O2     O2        0.754576289090659    0.721424228618573    0.036322592234791  0.0000
  O2     O2        0.252093298640170    0.301349743305056    0.947207381000116  0.0000
  O1     O1        0.241567132399206    0.667225314208677    0.872479711315028  0.0000
