data_c01304.vasp
_audit_creation_method             Generated by GULP
_audit_author_name                 Salvador R. G. Balestra
_symmetry_space_group_name_H-M     'P 1             '
_symmetry_Int_Tables_number        1

loop_
_symmetry_equiv_pos_site_id
_symmetry_equiv_pos_as_xyz
_cell_length_a                       17.2190
_cell_length_b                        7.6631
_cell_length_c                       10.1534
_cell_angle_alpha                   90.8514
_cell_angle_beta                    89.7789
_cell_angle_gamma                   88.9370

loop_
_atom_site_label
_atom_site_type_symbol
_atom_site_fract_x
_atom_site_fract_y
_atom_site_fract_z
_atom_site_charge
  Ge     Ge        0.160189999999943    0.293909999999983    0.273440000000051  0.0000
  Ge     Ge        0.660296025952905    0.303090586036819    0.694935083878277  0.0000
  Ge     Ge        0.654624719730616    0.315326097258067    0.016858652889306  0.0000
  Ge     Ge        0.348278595772009    0.666147877618151    0.951965544318933  0.0000
  Si     Si        0.050401857888592    0.999719838923124    0.347588792683304  0.0000
  Si     Si        0.452222736622124    0.979702420120887    0.365043446936311  0.0000
  Si     Si        0.954900701288296    0.977609120995017    0.608821602955902  0.0000
  Si     Si        0.554249275104524    0.002938659509028    0.617976702685661  0.0000
  Si     Si        0.559011627231530    0.006699901773797    0.118853796251955  0.0000
  Si     Si        0.947211120473892    0.989471246920011    0.090545084087200  0.0000
  Si     Si        0.450807872716493    0.967398554139236    0.872143575022477  0.0000
  Si     Si        0.062648552953773    0.985673366556200    0.851266727304682  0.0000
  Si     Si        0.344701698352199    0.685702171365630    0.265252528750252  0.0000
  Si     Si        0.840498560896236    0.281062647019373    0.702804095977846  0.0000
  Si     Si        0.669381473820701    0.712805654506198    0.701865089602211  0.0000
  Si     Si        0.849150732761001    0.681874872723235    0.704523854255674  0.0000
  Si     Si        0.165635772784948    0.701983261802177    0.263589570763615  0.0000
  Si     Si        0.342930472154966    0.281147046167407    0.273236301158455  0.0000
  Si     Si        0.849170381808463    0.680986555580805    0.010762795782531  0.0000
  Si     Si        0.342113704711176    0.266104242428038    0.965011517718827  0.0000
  Si     Si        0.165859779759891    0.681326718454291    0.954732449725284  0.0000
  Si     Si        0.161670661124672    0.283969593025551    0.961603231337485  0.0000
  Si     Si        0.669067449590055    0.718275079135344    0.010362043978750  0.0000
  Si     Si        0.835696627964541    0.288980084968264    0.015089272914128  0.0000
  O3     O3        0.097363557685010    0.175882791138238    0.367087290302017  0.0000
  O2     O2        0.398680241949043    0.810772319836881    0.351999327848920  0.0000
  O2     O2        0.900707038516860    0.147748357679802    0.633488914145129  0.0000
  O2     O2        0.620817993659179    0.850977988836430    0.616546870338403  0.0000
  O2     O2        0.905873268949051    0.801882529091747    0.621701710618107  0.0000
  O3     O3        0.597223397102333    0.183325357668112    0.599508888594907  0.0000
  O2     O2        0.113868145696821    0.842239229561418    0.344386054931166  0.0000
  O2     O2        0.401229600225648    0.157839589293040    0.354574949671137  0.0000
  O2     O2        0.987585472892451    0.977234204720200    0.461541446042081  0.0000
  O2     O2        0.490228601503210    0.970605976282822    0.507852486893041  0.0000
  O2     O2        0.005061055502207    0.004279186269620    0.210544692270783  0.0000
  O2     O2        0.522424473630164    0.975165479345336    0.261072030172107  0.0000
  O2     O2        0.028356487049893    0.980245129117772    0.705297673485185  0.0000
  O2     O2        0.510204424345309    0.005900015026547    0.757320937922716  0.0000
  O3     O3        0.589643469091134    0.201400773088628    0.110474252120406  0.0000
  O2     O2        0.902135404974741    0.806788221489075    0.098793092313089  0.0000
  O2     O2        0.384285439809452    0.117924084168080    0.877435796028155  0.0000
  O2     O2        0.112031604338418    0.808474096459972    0.869874203945640  0.0000
  O3     O3        0.408833320678076    0.784680670523663    0.853974493465948  0.0000
  O2     O2        0.115437026325802    0.156163159012503    0.864512306969534  0.0000
  O2     O2        0.631987300904265    0.873974926190869    0.097876811310933  0.0000
  O2     O2        0.886577948836789    0.150959522311130    0.095723949166581  0.0000
  O2     O2        0.494775530915458    0.965006767215485    0.010553613453227  0.0000
  O2     O2        0.992516232526896    0.999466814763405    0.953765790311435  0.0000
  O3     O3        0.135632718813977    0.511281741247535    0.292492244869932  0.0000
  O2     O2        0.367961059896095    0.483080190564031    0.289359348676118  0.0000
  O2     O2        0.869380441872553    0.478118067651934    0.677633910381067  0.0000
  O3     O3        0.638813091674766    0.521510726170550    0.673571988675567  0.0000
  O3     O3        0.255431642925900    0.260143676305338    0.321733512941146  0.0000
  O2     O2        0.255130695017452    0.717353437693463    0.309019297402840  0.0000
  O3     O3        0.755172229030017    0.260104923513537    0.645156705488685  0.0000
  O2     O2        0.760366712975872    0.722151062712916    0.662986109857815  0.0000
  O3     O3        0.149546508823137    0.228286621564251    0.110904408922980  0.0000
  O3     O3        0.355198705077585    0.733528062564608    0.114026900540745  0.0000
  O2     O2        0.833535421514378    0.245542159604664    0.858924266747741  0.0000
  O2     O2        0.659628876263256    0.761921977618735    0.856212469625805  0.0000
  O2     O2        0.860979373377193    0.728307081168419    0.858129504165296  0.0000
  O1     O1        0.646779626459849    0.250328607147499    0.856264150792593  0.0000
  O2     O2        0.162203782567119    0.740592681366446    0.107726450198729  0.0000
  O2     O2        0.348771836572154    0.223954807262713    0.119836242824641  0.0000
  O3     O3        0.630119969292609    0.534788442691927    0.036303925621092  0.0000
  O2     O2        0.873058664469520    0.480180981711181    0.037277753509340  0.0000
  O3     O3        0.378754666381408    0.451202482780475    0.936345676778230  0.0000
  O2     O2        0.133591488680040    0.484462933113899    0.941249357776818  0.0000
  O3     O3        0.749119994880551    0.285044428700693    0.069748605873630  0.0000
  O2     O2        0.759349752362456    0.707893356248140    0.049514961193211  0.0000
  O2     O2        0.252324186448474    0.271463497686517    0.923944186009945  0.0000
  O3     O3        0.253052757222989    0.690206806781865    0.902551263219409  0.0000
