data_c01341.vasp
_audit_creation_method             Generated by GULP
_audit_author_name                 Salvador R. G. Balestra
_symmetry_space_group_name_H-M     'P 1             '
_symmetry_Int_Tables_number        1

loop_
_symmetry_equiv_pos_site_id
_symmetry_equiv_pos_as_xyz
_cell_length_a                       17.1141
_cell_length_b                        7.6141
_cell_length_c                       10.2378
_cell_angle_alpha                   91.3857
_cell_angle_beta                    91.1061
_cell_angle_gamma                   90.4476

loop_
_atom_site_label
_atom_site_type_symbol
_atom_site_fract_x
_atom_site_fract_y
_atom_site_fract_z
_atom_site_charge
  Ge     Ge        0.160189999999943    0.293909999999983    0.273440000000051  0.0000
  Ge     Ge        0.348204008065097    0.332561121556579    0.270923478702832  0.0000
  Ge     Ge        0.845055114870652    0.675095372266582    0.009698780758253  0.0000
  Ge     Ge        0.143159031520314    0.663713093533422    0.943708897616464  0.0000
  Si     Si        0.043638172208819    0.008554507989756    0.350585883495438  0.0000
  Si     Si        0.449401947507362    0.021645975074067    0.348735532517165  0.0000
  Si     Si        0.940664768514998    0.988654059954199    0.601154799567558  0.0000
  Si     Si        0.542544732318546    0.990233756526418    0.611741844436285  0.0000
  Si     Si        0.551866192720417    0.996399806592817    0.099221802602449  0.0000
  Si     Si        0.943030608455895    0.994274721925819    0.094042393463517  0.0000
  Si     Si        0.435077998191493    0.990528492947832    0.860371987380753  0.0000
  Si     Si        0.049294036145974    0.977724717152506    0.848136714878856  0.0000
  Si     Si        0.327909471990989    0.737917332224221    0.246222326863325  0.0000
  Si     Si        0.827721232150371    0.279142965686328    0.693280854670063  0.0000
  Si     Si        0.658632397551413    0.703148111264913    0.700288167784012  0.0000
  Si     Si        0.838458121896569    0.685307526120502    0.699075866174964  0.0000
  Si     Si        0.648093002065817    0.299569279085382    0.692118009638990  0.0000
  Si     Si        0.147434527699453    0.704627393309411    0.251163348700290  0.0000
  Si     Si        0.648546634593805    0.304994540875533    0.996281345453779  0.0000
  Si     Si        0.341744171753076    0.305121617091744    0.960510984223500  0.0000
  Si     Si        0.324809191406942    0.698406001024276    0.939207524834325  0.0000
  Si     Si        0.160170850102575    0.258822651673150    0.965058472722247  0.0000
  Si     Si        0.661448337515393    0.702880090114952    0.006702523789168  0.0000
  Si     Si        0.829055765640453    0.271012805707457    0.998500385829463  0.0000
  O3     O3        0.103223263014935    0.169050605911094    0.373733860515677  0.0000
  O2     O2        0.373241922490209    0.900290669334073    0.315980393821211  0.0000
  O2     O2        0.879402897166537    0.148601897995245    0.606430975600190  0.0000
  O2     O2        0.605001770737373    0.833450521451035    0.618547730475390  0.0000
  O2     O2        0.895278645651603    0.803610195190440    0.613459032252116  0.0000
  O2     O2        0.588889720340955    0.176102649915884    0.607206200105513  0.0000
  O2     O2        0.093353704836208    0.830459712565699    0.338379579566032  0.0000
  O3     O3        0.417783537474766    0.218134509673383    0.358092186826772  0.0000
  O2     O2        0.981279730332689    0.988043358368280    0.462739532098277  0.0000
  O2     O2        0.489362142071441    0.964118787437067    0.483283819739793  0.0000
  O2     O2        0.995347237626913    0.050139562287308    0.218343578765055  0.0000
  O2     O2        0.514619853389088    0.996952695728693    0.239993561094970  0.0000
  O2     O2        0.008022372491423    0.017296976554453    0.710762174033458  0.0000
  O2     O2        0.486153169788702    0.984029037245228    0.733198286795804  0.0000
  O2     O2        0.593099376500388    0.184613829247118    0.080686415809367  0.0000
  O3     O3        0.911471556733101    0.796706034488132    0.102849991270816  0.0000
  O2     O2        0.392420888778286    0.178015729140240    0.868185240363594  0.0000
  O3     O3        0.077473818046671    0.777934366744776    0.848912241750622  0.0000
  O2     O2        0.372038888206401    0.832454558424040    0.850932409832125  0.0000
  O2     O2        0.124335396516759    0.106151362567677    0.869765687784139  0.0000
  O2     O2        0.614277099850301    0.840451260986201    0.094111459386001  0.0000
  O2     O2        0.867549900572551    0.119907135081211    0.083568811033653  0.0000
  O2     O2        0.486946873194013    0.958111095829242    0.988594252609876  0.0000
  O2     O2        0.990683694603775    0.022854972147012    0.963571541624457  0.0000
  O3     O3        0.124569183501932    0.505015072600885    0.274505582377592  0.0000
  O3     O3        0.367712195727460    0.555896663487781    0.281649608140875  0.0000
  O2     O2        0.856420840674066    0.479141660344651    0.673824317142680  0.0000
  O2     O2        0.629205105750160    0.503837250417361    0.669851482353809  0.0000
  O1     O1        0.255819403943016    0.294872131939003    0.324779703246139  0.0000
  O2     O2        0.238435330008699    0.735721925277189    0.294139955490657  0.0000
  O2     O2        0.736777066250248    0.259746013600506    0.650198209688871  0.0000
  O2     O2        0.748514765911850    0.723730476143801    0.658570120714678  0.0000
  O3     O3        0.156057376729824    0.207519472161949    0.115280988608901  0.0000
  O2     O2        0.324944739506866    0.763622559933353    0.090338708533167  0.0000
  O2     O2        0.836618419078087    0.228074637767442    0.844182914170766  0.0000
  O2     O2        0.654662263973535    0.751004356127345    0.854093005686951  0.0000
  O3     O3        0.854846036318888    0.735498445746515    0.849307594731704  0.0000
  O2     O2        0.636512105111745    0.254097566232344    0.843579294325810  0.0000
  O3     O3        0.135004215126960    0.750133236278217    0.100321287812490  0.0000
  O3     O3        0.357617523962750    0.261314002356811    0.109991801949772  0.0000
  O2     O2        0.626133916460490    0.507197847299443    0.024534653182468  0.0000
  O3     O3        0.868613542361779    0.458030899940495    0.030305920135477  0.0000
  O2     O2        0.364883503969438    0.506416068173244    0.930564729432544  0.0000
  O3     O3        0.118000288305423    0.443896909939244    0.942321876882895  0.0000
  O2     O2        0.738475866569621    0.277297585107097    0.037138393399011  0.0000
  O3     O3        0.750277089584920    0.710279915708320    0.055104623953458  0.0000
  O2     O2        0.250260264322720    0.281695361701602    0.926522305896894  0.0000
  O3     O3        0.236531056232827    0.689503633881604    0.886883474806371  0.0000
