data_c01334.vasp
_audit_creation_method             Generated by GULP
_audit_author_name                 Salvador R. G. Balestra
_symmetry_space_group_name_H-M     'P 1             '
_symmetry_Int_Tables_number        1

loop_
_symmetry_equiv_pos_site_id
_symmetry_equiv_pos_as_xyz
_cell_length_a                       17.1284
_cell_length_b                        7.6257
_cell_length_c                       10.2559
_cell_angle_alpha                   91.2259
_cell_angle_beta                    90.0683
_cell_angle_gamma                   90.2404

loop_
_atom_site_label
_atom_site_type_symbol
_atom_site_fract_x
_atom_site_fract_y
_atom_site_fract_z
_atom_site_charge
  Ge     Ge        0.160189999999943    0.293909999999983    0.273440000000051  0.0000
  Ge     Ge        0.347351085906029    0.325374100932224    0.274645545801187  0.0000
  Ge     Ge        0.646479388792865    0.327288024197228    0.019050889682677  0.0000
  Ge     Ge        0.345949321767281    0.325363897093925    0.955535189802495  0.0000
  Si     Si        0.042395533843195    0.005026952956003    0.355898520316561  0.0000
  Si     Si        0.448845062167142    0.014692468854163    0.358720269857462  0.0000
  Si     Si        0.944940075849218    0.983566767579077    0.614484424093878  0.0000
  Si     Si        0.548239065954616    0.987333446923387    0.615747627899869  0.0000
  Si     Si        0.549808805217173    0.013184421913103    0.106275134635816  0.0000
  Si     Si        0.940498817075891    0.007625630468501    0.098559943464505  0.0000
  Si     Si        0.440273946124401    0.007586693198051    0.861313751878805  0.0000
  Si     Si        0.053271085898507    0.994267478194714    0.859008855867105  0.0000
  Si     Si        0.329806371317500    0.734765903039965    0.266365223224297  0.0000
  Si     Si        0.830167165673555    0.277766513070455    0.713729483045501  0.0000
  Si     Si        0.662153091047286    0.702626650844371    0.703363342112842  0.0000
  Si     Si        0.841942668438078    0.680069887733104    0.706277429283280  0.0000
  Si     Si        0.651138219043071    0.297671962691078    0.708671701446744  0.0000
  Si     Si        0.148382089215632    0.701938673181443    0.267390546960925  0.0000
  Si     Si        0.842838893252805    0.692656914770527    0.009848862652942  0.0000
  Si     Si        0.148148352758283    0.687402101625726    0.965435822665576  0.0000
  Si     Si        0.328169724954653    0.729051338654400    0.961276717446958  0.0000
  Si     Si        0.163336703917500    0.287626671735142    0.960693557273740  0.0000
  Si     Si        0.662118279289997    0.729658740805344    0.007640108521619  0.0000
  Si     Si        0.829127611862822    0.297440024100490    0.020300175498274  0.0000
  O3     O3        0.100937888963679    0.167163952024939    0.368375314079900  0.0000
  O2     O2        0.373180347366875    0.886745688215704    0.349895507120992  0.0000
  O2     O2        0.883698925252934    0.140586145030222    0.636331603305375  0.0000
  O2     O2        0.610954812733935    0.829726245939165    0.615170537659147  0.0000
  O2     O2        0.900256793660483    0.797206462706252    0.622096799826434  0.0000
  O2     O2        0.592958746150665    0.174100923638791    0.624059058185126  0.0000
  O2     O2        0.094217180765383    0.829064353264527    0.354015775549215  0.0000
  O3     O3        0.416689907040647    0.210463440343919    0.360951068968187  0.0000
  O2     O2        0.980293960349915    0.998707011328087    0.471438095041659  0.0000
  O2     O2        0.499218122668566    0.974527651386033    0.484684802326782  0.0000
  O2     O2        0.995958340875522    0.025739913226690    0.221461432734870  0.0000
  O2     O2        0.505299123866633    0.971211877762655    0.237668884445016  0.0000
  O2     O2        0.015726093803533    0.996874879421592    0.716438530562686  0.0000
  O2     O2        0.487082634165403    0.961304417777817    0.731385600975630  0.0000
  O3     O3        0.579743782184517    0.212202117876499    0.108768422033690  0.0000
  O2     O2        0.897142799387322    0.819414860898302    0.097623482054409  0.0000
  O3     O3        0.410052973323781    0.205128199245109    0.859836874735278  0.0000
  O2     O2        0.092374671807607    0.804035590973428    0.876776048068212  0.0000
  O2     O2        0.365207705529140    0.879349892876738    0.873079783013162  0.0000
  O2     O2        0.116320150494769    0.150152002679373    0.869283407069912  0.0000
  O2     O2        0.625449461564438    0.888553988233912    0.090998791977026  0.0000
  O2     O2        0.877819400198357    0.163938884417741    0.106320258487616  0.0000
  O2     O2        0.494129109506060    0.970651711015763    0.984923743512438  0.0000
  O2     O2        0.987966884485318    0.031655248806832    0.966480647520641  0.0000
  O3     O3        0.124313210643844    0.504402603934568    0.289517614052735  0.0000
  O3     O3        0.367257724990066    0.547733025194646    0.291202027697440  0.0000
  O2     O2        0.860199097278166    0.474243853177388    0.683778396516042  0.0000
  O2     O2        0.633055648172369    0.502151689813837    0.682956630716555  0.0000
  O1     O1        0.254515279742810    0.285056213261036    0.327481295811789  0.0000
  O2     O2        0.238923641513560    0.729894287663348    0.308484926977240  0.0000
  O2     O2        0.740438266362379    0.255872506504252    0.667714560505818  0.0000
  O2     O2        0.752970121578167    0.718236538992681    0.663701900855154  0.0000
  O3     O3        0.162180571748125    0.230286811295077    0.110266405392933  0.0000
  O2     O2        0.334880066692538    0.781567759931359    0.113969908341987  0.0000
  O2     O2        0.832337708550675    0.242084568888285    0.867596673777558  0.0000
  O2     O2        0.653076376992475    0.763294404135185    0.853641977120757  0.0000
  O2     O2        0.855168524725995    0.733715436130528    0.857674275395965  0.0000
  O3     O3        0.636656976769628    0.257308914585819    0.858759097610356  0.0000
  O2     O2        0.137805567723796    0.750592139883178    0.115366589680457  0.0000
  O1     O1        0.357110129987581    0.264346348528779    0.113550431534164  0.0000
  O3     O3        0.622515000483321    0.545551515254266    0.039074471431298  0.0000
  O2     O2        0.865513206688113    0.492737251887454    0.039286667948478  0.0000
  O3     O3        0.369481701218974    0.544124550993017    0.936727414046913  0.0000
  O2     O2        0.125360327806511    0.482428149965300    0.950138603835485  0.0000
  O3     O3        0.740977855635767    0.294580391014001    0.069098454047150  0.0000
  O2     O2        0.752881346579557    0.722351859988163    0.046751952315170  0.0000
  O3     O3        0.250628384476326    0.292552780239475    0.907673632840468  0.0000
  O2     O2        0.237390340905610    0.712968859584961    0.921205363373421  0.0000
