data_c01308.vasp
_audit_creation_method             Generated by GULP
_audit_author_name                 Salvador R. G. Balestra
_symmetry_space_group_name_H-M     'P 1             '
_symmetry_Int_Tables_number        1

loop_
_symmetry_equiv_pos_site_id
_symmetry_equiv_pos_as_xyz
_cell_length_a                       17.1757
_cell_length_b                        7.6637
_cell_length_c                       10.2081
_cell_angle_alpha                   89.8145
_cell_angle_beta                    89.9010
_cell_angle_gamma                   89.2485

loop_
_atom_site_label
_atom_site_type_symbol
_atom_site_fract_x
_atom_site_fract_y
_atom_site_fract_z
_atom_site_charge
  Ge     Ge        0.160189999999943    0.293909999999983    0.273440000000051  0.0000
  Ge     Ge        0.665187425338035    0.269056756998153    0.686289247384603  0.0000
  Ge     Ge        0.841257249310995    0.664392853021073    0.013414291147411  0.0000
  Ge     Ge        0.335669251844561    0.253807699867840    0.950828935023059  0.0000
  Si     Si        0.055324898581251    0.989347224190081    0.348862897935463  0.0000
  Si     Si        0.454889692779580    0.961838449656783    0.351688896385661  0.0000
  Si     Si        0.957295530443464    0.966897202438469    0.607116995945568  0.0000
  Si     Si        0.555050877497234    0.971868213388618    0.608386980460820  0.0000
  Si     Si        0.556919233272807    0.972957140097340    0.099682166853232  0.0000
  Si     Si        0.948047104727308    0.957834458406063    0.098242410423012  0.0000
  Si     Si        0.446565809913519    0.963958851498540    0.859108847075416  0.0000
  Si     Si        0.060237108890097    0.975113048991732    0.858407767057571  0.0000
  Si     Si        0.350500563257628    0.662779330675816    0.254483995342917  0.0000
  Si     Si        0.848349243430204    0.269236580782027    0.694200929800378  0.0000
  Si     Si        0.667781493334269    0.676162556503290    0.692349419967292  0.0000
  Si     Si        0.846794265420350    0.673716256153659    0.702101027535119  0.0000
  Si     Si        0.170558974341117    0.698623936601185    0.260975954706054  0.0000
  Si     Si        0.341154112178218    0.259302358029390    0.264418484961810  0.0000
  Si     Si        0.663123985768902    0.263356911613973    0.996698343196928  0.0000
  Si     Si        0.170310928757469    0.683709857605637    0.955207577414100  0.0000
  Si     Si        0.351385508600087    0.653879556585353    0.950960904471298  0.0000
  Si     Si        0.154560481187089    0.287523391620858    0.958445179356352  0.0000
  Si     Si        0.659260685083179    0.662760528589783    0.000069581219247  0.0000
  Si     Si        0.844030030817315    0.262141889663149    0.999962538883967  0.0000
  O3     O3        0.095188458514968    0.174796131366649    0.364097415847542  0.0000
  O2     O2        0.406732838878065    0.784075755003785    0.337864850182091  0.0000
  O2     O2        0.907579762369770    0.146790782752502    0.613258977791403  0.0000
  O2     O2        0.617607728893321    0.813419552944201    0.608390539175417  0.0000
  O2     O2        0.902209676600545    0.799807683652548    0.619518382551975  0.0000
  O3     O3        0.602963329318374    0.147745905649767    0.593267091601503  0.0000
  O2     O2        0.125136189542413    0.846122193853261    0.342549305890561  0.0000
  O2     O2        0.398843825310851    0.131529646290160    0.344623228688570  0.0000
  O2     O2        0.997442127517397    0.950560874223831    0.466777481587321  0.0000
  O2     O2        0.493579752215501    0.953081677357960    0.493228808254372  0.0000
  O2     O2        0.006562521707311    0.984949721386128    0.215683664958477  0.0000
  O2     O2        0.523261299143741    0.973362189192495    0.245317283267888  0.0000
  O2     O2        0.025153123493347    0.967359213323001    0.714223584103929  0.0000
  O2     O2        0.508509845230504    0.968604507153463    0.744294794845787  0.0000
  O2     O2        0.616991839843736    0.131988443138751    0.090456735419863  0.0000
  O3     O3        0.895464681596929    0.789697124797519    0.117252745618968  0.0000
  O3     O3        0.381766830455943    0.112973735813327    0.845271825323233  0.0000
  O2     O2        0.128290534108889    0.828363428645686    0.865594833508034  0.0000
  O2     O2        0.404869628980311    0.776448056610256    0.861644036438392  0.0000
  O2     O2        0.092494373887400    0.169031161510627    0.882387263798737  0.0000
  O2     O2        0.598193528987624    0.786296325404382    0.075130965795858  0.0000
  O2     O2        0.891436917839131    0.125972321086989    0.088195358657082  0.0000
  O2     O2        0.487838046177228    0.006406719098654    0.997112594283457  0.0000
  O2     O2        0.994516481154538    0.928019286073868    0.963250335030106  0.0000
  O3     O3        0.136802217051235    0.511280313699957    0.294716392692026  0.0000
  O2     O2        0.371302933151994    0.458916462801681    0.275716627958750  0.0000
  O2     O2        0.872692031022434    0.471894242493440    0.680862813698061  0.0000
  O3     O3        0.638916563505954    0.484192936337358    0.662885873893686  0.0000
  O3     O3        0.254825542108074    0.252383925552310    0.322685289726005  0.0000
  O2     O2        0.261791772029639    0.700819468510276    0.298821192452367  0.0000
  O3     O3        0.761707551212361    0.242434586502723    0.642264517296480  0.0000
  O2     O2        0.758112521583714    0.696475292640845    0.651505910450933  0.0000
  O3     O3        0.152389172029312    0.238574314764054    0.110698882925377  0.0000
  O2     O2        0.361399899004551    0.711287211173621    0.102062941976482  0.0000
  O2     O2        0.852585636400047    0.213774026225187    0.846800716011058  0.0000
  O2     O2        0.660490688136575    0.715441382695023    0.847199980984822  0.0000
  O3     O3        0.851282878645231    0.728380832782119    0.852437539757489  0.0000
  O3     O3        0.653648146418086    0.205721047758443    0.847570824557455  0.0000
  O2     O2        0.161945826899169    0.739725191975383    0.106422009953512  0.0000
  O3     O3        0.339663187857997    0.198636265554218    0.114228053441945  0.0000
  O2     O2        0.631676812560986    0.462058073069983    0.014846559509090  0.0000
  O3     O3        0.874830433382115    0.452623359610046    0.028805614268946  0.0000
  O3     O3        0.376845212833573    0.456661240390487    0.929497525869909  0.0000
  O2     O2        0.132302667245554    0.493083293711894    0.937398549546874  0.0000
  O2     O2        0.753282306949104    0.255467061597339    0.038587186358463  0.0000
  O3     O3        0.744596944440961    0.683523416648119    0.058452746902916  0.0000
  O3     O3        0.239885761771787    0.254346122838064    0.901785325041572  0.0000
  O2     O2        0.260458227430107    0.675649934353972    0.912733973009880  0.0000
