data_c01349.vasp
_audit_creation_method             Generated by GULP
_audit_author_name                 Salvador R. G. Balestra
_symmetry_space_group_name_H-M     'P 1             '
_symmetry_Int_Tables_number        1

loop_
_symmetry_equiv_pos_site_id
_symmetry_equiv_pos_as_xyz
_cell_length_a                       17.0050
_cell_length_b                        7.6455
_cell_length_c                       10.3000
_cell_angle_alpha                   90.5977
_cell_angle_beta                    90.2786
_cell_angle_gamma                   89.9710

loop_
_atom_site_label
_atom_site_type_symbol
_atom_site_fract_x
_atom_site_fract_y
_atom_site_fract_z
_atom_site_charge
  Ge     Ge        0.160189999999943    0.293909999999983    0.273440000000051  0.0000
  Ge     Ge        0.673789517423427    0.249014766146093    0.003079829721662  0.0000
  Ge     Ge        0.836656870937595    0.695624623236713    0.005240509928823  0.0000
  Ge     Ge        0.338625717823059    0.256245363183192    0.956689787711960  0.0000
  Si     Si        0.055750924154014    0.987594310745933    0.354953501302677  0.0000
  Si     Si        0.457666115115885    0.966571270997156    0.354662882171528  0.0000
  Si     Si        0.956693962031319    0.968678140844532    0.611691248687313  0.0000
  Si     Si        0.559174150749532    0.953803016716921    0.612051339972135  0.0000
  Si     Si        0.560164697744985    0.964934455429368    0.101603526591559  0.0000
  Si     Si        0.949669187459337    0.980786720787491    0.101271604422539  0.0000
  Si     Si        0.450795548855829    0.970721505762886    0.861792450531813  0.0000
  Si     Si        0.060312886283394    0.966570356491831    0.864433465194801  0.0000
  Si     Si        0.352835331080697    0.664358954111056    0.261355311079568  0.0000
  Si     Si        0.853780067605831    0.278656404665591    0.701841078677527  0.0000
  Si     Si        0.661865839961868    0.646265842947008    0.693357225788237  0.0000
  Si     Si        0.841323707006080    0.681307681544634    0.697226050170966  0.0000
  Si     Si        0.673649508320366    0.244369770657130    0.694858447937324  0.0000
  Si     Si        0.171012454700623    0.699246188622529    0.263358812165177  0.0000
  Si     Si        0.343411922763037    0.260312865349852    0.266744856864630  0.0000
  Si     Si        0.172288822519872    0.682807397392403    0.961022115531819  0.0000
  Si     Si        0.355362534361472    0.658468302909101    0.961154147328778  0.0000
  Si     Si        0.155224516632081    0.284584345727927    0.962264305842977  0.0000
  Si     Si        0.652620873343680    0.647859003222012    0.997818778001392  0.0000
  Si     Si        0.858474138958557    0.296656961332872    0.005426396340867  0.0000
  O3     O3        0.094965677516466    0.176287494910055    0.364672272058500  0.0000
  O2     O2        0.407987520218126    0.787154419978758    0.349498172848052  0.0000
  O2     O2        0.913406996846916    0.156507958599928    0.621611683441003  0.0000
  O2     O2        0.603078904351919    0.766128054318780    0.609865477530400  0.0000
  O2     O2        0.893590663014334    0.811737213428129    0.612294449251468  0.0000
  O2     O2        0.623065525065035    0.109640108905469    0.607517749251913  0.0000
  O2     O2        0.126776369505317    0.847389016895911    0.346216443913522  0.0000
  O2     O2        0.400832808757190    0.134673315768136    0.347985740263797  0.0000
  O2     O2        0.001661931417308    0.952488868736896    0.477182795877394  0.0000
  O2     O2        0.502881322370440    0.971014964779891    0.489810184213547  0.0000
  O2     O2        0.002143516763254    0.968099725340105    0.227891734984691  0.0000
  O2     O2        0.521229516416917    0.970623291065719    0.241342547754787  0.0000
  O2     O2        0.020741655055724    0.948985140665963    0.724697625533372  0.0000
  O2     O2        0.506747657456750    0.970727624238149    0.739567180220115  0.0000
  O3     O3        0.633026487545039    0.095977086831497    0.102126703918607  0.0000
  O3     O3        0.876456905608501    0.850929588195314    0.107151373989174  0.0000
  O3     O3        0.383914875208110    0.115076825236833    0.850644933679610  0.0000
  O2     O2        0.130158373894891    0.823820246828416    0.870075803218761  0.0000
  O2     O2        0.410351121309703    0.780947389168181    0.875059717988145  0.0000
  O2     O2        0.092913405627438    0.163498386228686    0.884026326133308  0.0000
  O2     O2        0.588877634813204    0.768523409979859    0.069753337873701  0.0000
  O2     O2        0.919386243510665    0.179518577738133    0.086549886506709  0.0000
  O2     O2        0.499418789442761    0.029102279601625    0.990908050923674  0.0000
  O2     O2        0.997853290889195    0.917220576161707    0.974608669265260  0.0000
  O3     O3        0.135753362490874    0.511155271972084    0.293154338194217  0.0000
  O2     O2        0.374524329694499    0.460854481076316    0.278735461314020  0.0000
  O2     O2        0.874098227313909    0.483045898065691    0.681522739003450  0.0000
  O2     O2        0.641268052655708    0.441441490281240    0.673251144053165  0.0000
  O3     O3        0.255806560023802    0.254103758218266    0.322024310275317  0.0000
  O2     O2        0.262951749504503    0.697637996690248    0.302998053145324  0.0000
  O2     O2        0.765201443568421    0.237823892352748    0.653473102805542  0.0000
  O2     O2        0.750889829682860    0.684156805484388    0.647882534872612  0.0000
  O3     O3        0.150997866777309    0.233655455357364    0.112379084752274  0.0000
  O2     O2        0.365355976597850    0.717262099501075    0.111621638700612  0.0000
  O2     O2        0.860969403292226    0.235903566229110    0.854053588408066  0.0000
  O2     O2        0.654030211403998    0.695266929922953    0.844908532218595  0.0000
  O3     O3        0.844184394070443    0.750015992451973    0.844049974255824  0.0000
  O3     O3        0.666801951130013    0.185191741238464    0.842646356217277  0.0000
  O2     O2        0.163736996561783    0.742611549925628    0.110681642513939  0.0000
  O3     O3        0.342893925638453    0.197644688300099    0.117655489699931  0.0000
  O3     O3        0.627761663189848    0.449501408355907    0.018917745185455  0.0000
  O3     O3        0.882818054493614    0.495925828588797    0.024395778387097  0.0000
  O3     O3        0.380412831896012    0.460575660299044    0.939569719914977  0.0000
  O2     O2        0.133892331421569    0.490371479159379    0.943199947038783  0.0000
  O3     O3        0.769964163911301    0.269732990503407    0.052756188348095  0.0000
  O3     O3        0.739789504028259    0.680233658993678    0.051612116234744  0.0000
  O3     O3        0.241707611951429    0.254368692609652    0.908234313342857  0.0000
  O2     O2        0.263662526179013    0.677524853618360    0.921274249228153  0.0000
