data_c01345.vasp
_audit_creation_method             Generated by GULP
_audit_author_name                 Salvador R. G. Balestra
_symmetry_space_group_name_H-M     'P 1             '
_symmetry_Int_Tables_number        1

loop_
_symmetry_equiv_pos_site_id
_symmetry_equiv_pos_as_xyz
_cell_length_a                       17.1764
_cell_length_b                        7.6480
_cell_length_c                       10.1527
_cell_angle_alpha                   92.1507
_cell_angle_beta                    91.0440
_cell_angle_gamma                   91.0976

loop_
_atom_site_label
_atom_site_type_symbol
_atom_site_fract_x
_atom_site_fract_y
_atom_site_fract_z
_atom_site_charge
  Ge     Ge        0.160189999999943    0.293909999999983    0.273440000000051  0.0000
  Ge     Ge        0.350217943196647    0.330935612120166    0.270707833727458  0.0000
  Ge     Ge        0.346790366536178    0.312821962652158    0.956185785950105  0.0000
  Ge     Ge        0.142457235320194    0.667644538993912    0.946327206918849  0.0000
  Si     Si        0.044129192229399    0.005348265127598    0.349370755927667  0.0000
  Si     Si        0.450943494865445    0.024397734345633    0.353674088351791  0.0000
  Si     Si        0.941528458757500    0.992767901359866    0.599963789879108  0.0000
  Si     Si        0.545448322582375    0.975815967669112    0.613893893925746  0.0000
  Si     Si        0.554699403326905    0.009885011990300    0.107682737808350  0.0000
  Si     Si        0.941277528021399    0.021218646359640    0.090402439587169  0.0000
  Si     Si        0.440009746299939    0.997139435061907    0.863794002018916  0.0000
  Si     Si        0.048785416523302    0.978366503973342    0.847435265392224  0.0000
  Si     Si        0.328746204330362    0.730262194334171    0.251474619827525  0.0000
  Si     Si        0.832783570995785    0.289208665280964    0.698699115215032  0.0000
  Si     Si        0.656361747844540    0.690620188267090    0.693236493645955  0.0000
  Si     Si        0.836446140095388    0.691459336071538    0.696428289839452  0.0000
  Si     Si        0.652920262590736    0.288562022876527    0.696441662639280  0.0000
  Si     Si        0.149522158654058    0.700860714932616    0.263142955083355  0.0000
  Si     Si        0.654922797282010    0.311816617754828    0.003969175342224  0.0000
  Si     Si        0.838353395162319    0.708165284761498    0.003994795732475  0.0000
  Si     Si        0.322924326472524    0.704107899455115    0.937133454233170  0.0000
  Si     Si        0.160436811478726    0.264160963551797    0.964119408558774  0.0000
  Si     Si        0.657871349712031    0.709827873414624    0.000727104546234  0.0000
  Si     Si        0.834980107426525    0.310933977308989    0.006717274829296  0.0000
  O3     O3        0.103807986838174    0.166301406031472    0.373263700975192  0.0000
  O2     O2        0.380667198334473    0.893936623434115    0.304424661471836  0.0000
  O2     O2        0.885556471603488    0.158500075347841    0.614797140317774  0.0000
  O2     O2        0.603412401481243    0.811952850040499    0.604064967142795  0.0000
  O2     O2        0.891536036183828    0.813646481911812    0.612190945617002  0.0000
  O2     O2        0.595849986901122    0.156574547668858    0.612828094689177  0.0000
  O2     O2        0.093712282726236    0.828736505012400    0.345449064391786  0.0000
  O3     O3        0.415239984046039    0.214573927024965    0.365489999942868  0.0000
  O2     O2        0.977694007063847    0.992697791045324    0.456708343088065  0.0000
  O2     O2        0.484694237361661    0.966097608999085    0.493276312290894  0.0000
  O2     O2        0.001055967228821    0.033113594293557    0.210471634633346  0.0000
  O2     O2        0.522470282798494    0.011813810250635    0.253841852550142  0.0000
  O2     O2        0.013074098178329    0.007195972006385    0.703442435260295  0.0000
  O2     O2        0.497817545957418    0.959579289409199    0.746399625676308  0.0000
  O2     O2        0.603111789528704    0.189825054201443    0.092550114523668  0.0000
  O2     O2        0.890617124074795    0.841340398580449    0.094368142391895  0.0000
  O3     O3        0.399359134921943    0.180918053785104    0.850175272705342  0.0000
  O3     O3        0.074250685634062    0.779438155280806    0.858336479857414  0.0000
  O2     O2        0.374121897138104    0.846021013737478    0.864656963337260  0.0000
  O2     O2        0.123830408071647    0.105908314588377    0.871911986008902  0.0000
  O2     O2        0.609741604371818    0.843291903320960    0.089751994021735  0.0000
  O2     O2        0.884553490012660    0.187277367720800    0.098435724264868  0.0000
  O2     O2        0.483982408400586    0.995011004638199    0.004266690894378  0.0000
  O2     O2        0.984907567887193    0.029734557749120    0.953708421513968  0.0000
  O3     O3        0.145587376417815    0.510644984082551    0.320318167125454  0.0000
  O3     O3        0.351327327830860    0.552111406379504    0.318595425863471  0.0000
  O2     O2        0.856524486231840    0.488557241984162    0.667295152013358  0.0000
  O2     O2        0.632168168012942    0.487614065317797    0.664403928719752  0.0000
  O1     O1        0.257074127637824    0.252804877979194    0.290161984454001  0.0000
  O2     O2        0.238596635364958    0.776095417343436    0.276219384677195  0.0000
  O2     O2        0.742238157071546    0.252364151329461    0.659897724518317  0.0000
  O2     O2        0.746457518011092    0.722270740482809    0.657989300552221  0.0000
  O3     O3        0.128760931740300    0.258932273146225    0.111596759313681  0.0000
  O2     O2        0.338625430824703    0.694031168965831    0.094882066895868  0.0000
  O2     O2        0.845528910246106    0.257557156050587    0.853231079770585  0.0000
  O2     O2        0.644082826059200    0.744080804913283    0.846590596949692  0.0000
  O2     O2        0.851565394565704    0.742954851399490    0.850246792680701  0.0000
  O2     O2        0.640273590540684    0.256461973696320    0.850689984721279  0.0000
  O3     O3        0.122848845194130    0.697972824283945    0.110815288683289  0.0000
  O1     O1        0.383755134752305    0.306256553840519    0.112933171347853  0.0000
  O2     O2        0.630022743106549    0.512369456652372    0.030119945942048  0.0000
  O2     O2        0.863310677560912    0.511438304532305    0.034848002828333  0.0000
  O3     O3        0.345238491957656    0.512632262848040    0.883202846297815  0.0000
  O3     O3        0.138974973950737    0.448150602961098    0.902306756839502  0.0000
  O2     O2        0.744873288807666    0.289310334060559    0.043294645225746  0.0000
  O2     O2        0.748548078302002    0.736147657957530    0.038243245066338  0.0000
  O3     O3        0.252128421462729    0.239961536214909    0.974140243637713  0.0000
  O3     O3        0.234023988892847    0.747583448211111    0.910714310668581  0.0000
