data_c01324.vasp
_audit_creation_method             Generated by GULP
_audit_author_name                 Salvador R. G. Balestra
_symmetry_space_group_name_H-M     'P 1             '
_symmetry_Int_Tables_number        1

loop_
_symmetry_equiv_pos_site_id
_symmetry_equiv_pos_as_xyz
_cell_length_a                       17.1014
_cell_length_b                        7.5986
_cell_length_c                       10.2837
_cell_angle_alpha                   89.0560
_cell_angle_beta                    90.6705
_cell_angle_gamma                   90.4330

loop_
_atom_site_label
_atom_site_type_symbol
_atom_site_fract_x
_atom_site_fract_y
_atom_site_fract_z
_atom_site_charge
  Ge     Ge        0.160189999999943    0.293909999999983    0.273440000000051  0.0000
  Ge     Ge        0.139968022240529    0.711691473344905    0.282609715157846  0.0000
  Ge     Ge        0.843161442494856    0.705320769559935    0.026082127636142  0.0000
  Ge     Ge        0.342045593181609    0.371719581627397    0.965062262315173  0.0000
  Si     Si        0.038357871171926    0.015954678550887    0.368649482130210  0.0000
  Si     Si        0.444293245844946    0.036904428023295    0.364760640460505  0.0000
  Si     Si        0.937540662518496    0.030261805372596    0.620876753753717  0.0000
  Si     Si        0.539074359567958    0.033005209851813    0.630504033960457  0.0000
  Si     Si        0.548575584955941    0.022882422233129    0.115898353382281  0.0000
  Si     Si        0.941104197572979    0.021741697399899    0.110329502280908  0.0000
  Si     Si        0.434461659574862    0.053166789778126    0.876240157131873  0.0000
  Si     Si        0.048288047310181    0.034420060609726    0.866409529325182  0.0000
  Si     Si        0.324321143468779    0.751838002473940    0.282612829397217  0.0000
  Si     Si        0.823959003160499    0.316361824850909    0.716404854306536  0.0000
  Si     Si        0.655844972148780    0.743215415293837    0.721914623306654  0.0000
  Si     Si        0.835217180672260    0.722882800180731    0.716608668159412  0.0000
  Si     Si        0.644220635688489    0.338528713086469    0.719177104780759  0.0000
  Si     Si        0.342231284118655    0.347073241736470    0.275799837082585  0.0000
  Si     Si        0.645727730326004    0.336675325288978    0.021614316953296  0.0000
  Si     Si        0.141516442339707    0.722990763754106    0.976491262654809  0.0000
  Si     Si        0.321380457733334    0.772760706597316    0.977855910602148  0.0000
  Si     Si        0.160328577276911    0.321094348435377    0.964281382713752  0.0000
  Si     Si        0.659685663463457    0.734666016483787    0.026801422927230  0.0000
  Si     Si        0.826287045374740    0.301220973016989    0.020243578509010  0.0000
  O3     O3        0.114353913028820    0.140311990164400    0.370368296304510  0.0000
  O2     O2        0.377100911200386    0.886614583680183    0.364911572519963  0.0000
  O2     O2        0.875846729196280    0.188570973573468    0.631151032299887  0.0000
  O2     O2        0.602007318553007    0.876889228079913    0.640632388571879  0.0000
  O2     O2        0.892272259776191    0.843559321157442    0.628880531671981  0.0000
  O2     O2        0.583937330222360    0.220557306341325    0.637317308905165  0.0000
  O3     O3        0.071034000497725    0.819740600163465    0.372201707117011  0.0000
  O2     O2        0.405802973895536    0.229636427712990    0.354773907280061  0.0000
  O2     O2        0.977613013635017    0.048303293607651    0.481986172477540  0.0000
  O2     O2        0.493904340379751    0.020886133209557    0.495756689548150  0.0000
  O2     O2        0.994117757029894    0.067240566462873    0.233564408204307  0.0000
  O2     O2        0.503318042174795    0.003898400614500    0.248777991622449  0.0000
  O2     O2        0.005790816004444    0.044482318378795    0.727839782435654  0.0000
  O2     O2        0.475223706056066    0.009506907649832    0.742171075867701  0.0000
  O2     O2        0.590712484924448    0.213516499653345    0.109448530843018  0.0000
  O3     O3        0.910793775718472    0.822276047592057    0.115621682304013  0.0000
  O3     O3        0.408976200981990    0.254774121472838    0.877793468374040  0.0000
  O2     O2        0.086645639668353    0.841150114343479    0.881791177380835  0.0000
  O2     O2        0.356084813438461    0.934685160526260    0.894019922176960  0.0000
  O2     O2        0.112375858611684    0.190608713944391    0.870195371882801  0.0000
  O2     O2        0.612148356576849    0.868925960218649    0.112916162520314  0.0000
  O2     O2        0.864551929276189    0.145561796100829    0.105470039211347  0.0000
  O2     O2        0.490737236417746    0.998296976199163    0.994981927810821  0.0000
  O2     O2        0.987526592620059    0.067808677316109    0.979865131093040  0.0000
  O1     O1        0.118929516404847    0.494276623959544    0.297092104867497  0.0000
  O2     O2        0.358917989408630    0.554914299489817    0.297215605077768  0.0000
  O2     O2        0.852771446680658    0.517135892938145    0.693593311346066  0.0000
  O2     O2        0.625968141092163    0.544468252918036    0.695966047943773  0.0000
  O3     O3        0.256468931593916    0.302302731905653    0.325908964128769  0.0000
  O3     O3        0.235764798688624    0.754119991886672    0.330898050021096  0.0000
  O2     O2        0.732733750428168    0.297929468274376    0.676068277997827  0.0000
  O2     O2        0.745400540886018    0.763524184764420    0.676501028786811  0.0000
  O3     O3        0.160565375457556    0.243373030735230    0.110203211101631  0.0000
  O2     O2        0.325037583624181    0.812730394099119    0.131390021900171  0.0000
  O2     O2        0.833210011906767    0.261625874276288    0.867191037809401  0.0000
  O2     O2        0.653687891359666    0.787700302221394    0.874324402175214  0.0000
  O3     O3        0.851521992203108    0.769652717516042    0.865241810776540  0.0000
  O2     O2        0.632456007169011    0.287972916038005    0.870765140057416  0.0000
  O3     O3        0.128470371023328    0.783823335159346    0.122445828502306  0.0000
  O3     O3        0.349142775210904    0.302365799405945    0.124782240841822  0.0000
  O2     O2        0.623483212278178    0.538550871338868    0.046559190957762  0.0000
  O3     O3        0.866405875919606    0.486819647757623    0.049014438702154  0.0000
  O3     O3        0.365251424688735    0.592555626534899    0.949340310419178  0.0000
  O2     O2        0.120447482555917    0.515634363586095    0.964580209933109  0.0000
  O2     O2        0.735836202953061    0.308244928903425    0.060339463722620  0.0000
  O3     O3        0.748583738079489    0.739887331779212    0.074065150275327  0.0000
  O3     O3        0.247347744407846    0.337951586918877    0.911187588716290  0.0000
  O2     O2        0.231175699344925    0.750775725542397    0.935097973551495  0.0000
