data_c01314.vasp
_audit_creation_method             Generated by GULP
_audit_author_name                 Salvador R. G. Balestra
_symmetry_space_group_name_H-M     'P 1             '
_symmetry_Int_Tables_number        1

loop_
_symmetry_equiv_pos_site_id
_symmetry_equiv_pos_as_xyz
_cell_length_a                       17.1223
_cell_length_b                        7.6305
_cell_length_c                       10.2729
_cell_angle_alpha                   89.3156
_cell_angle_beta                    90.2947
_cell_angle_gamma                   89.7752

loop_
_atom_site_label
_atom_site_type_symbol
_atom_site_fract_x
_atom_site_fract_y
_atom_site_fract_z
_atom_site_charge
  Ge     Ge        0.160189999999943    0.293909999999983    0.273440000000051  0.0000
  Ge     Ge        0.650920997744856    0.319602090765260    0.707546599258968  0.0000
  Ge     Ge        0.349687405542475    0.328977529316281    0.970761967877427  0.0000
  Ge     Ge        0.667670422781791    0.717971296177122    0.024236729750391  0.0000
  Si     Si        0.042700630867919    0.003211158953765    0.356296731334023  0.0000
  Si     Si        0.445196529972775    0.011714942052828    0.364154185088600  0.0000
  Si     Si        0.948516709971639    0.999237133630330    0.618155220651821  0.0000
  Si     Si        0.546430037261767    0.013957211848697    0.619923087028762  0.0000
  Si     Si        0.556620471059351    0.002922449846583    0.118925468235188  0.0000
  Si     Si        0.943301707824566    0.993127995045658    0.097028802794947  0.0000
  Si     Si        0.448000186798529    0.012834108710250    0.876251648984174  0.0000
  Si     Si        0.058063151205537    0.008538513780901    0.860977291044044  0.0000
  Si     Si        0.331320590744429    0.723653550412603    0.276129646011430  0.0000
  Si     Si        0.833325368304208    0.292801118054502    0.705059215122925  0.0000
  Si     Si        0.664778288562752    0.733481046443223    0.716834026159485  0.0000
  Si     Si        0.843430313824527    0.693189907572240    0.715017213544965  0.0000
  Si     Si        0.150363730147381    0.703635411641687    0.270152866755010  0.0000
  Si     Si        0.342360386924829    0.320102299012896    0.283015195688192  0.0000
  Si     Si        0.649363105261167    0.313640429485600    0.013722185157438  0.0000
  Si     Si        0.849155307989576    0.674542655549627    0.021082240898987  0.0000
  Si     Si        0.153666108581103    0.697623879234712    0.968613801732782  0.0000
  Si     Si        0.334155702965006    0.732199975625720    0.972216549875914  0.0000
  Si     Si        0.167271464943541    0.296091596308125    0.963222872314784  0.0000
  Si     Si        0.830283341089606    0.282373768996915    0.010954699579825  0.0000
  O3     O3        0.100914526409270    0.164812814147513    0.367177251102050  0.0000
  O2     O2        0.380493867171932    0.858450052563241    0.361894843900288  0.0000
  O2     O2        0.889603800915213    0.163107940667454    0.627832807465280  0.0000
  O2     O2        0.617057542038851    0.873584707177840    0.629487184256501  0.0000
  O2     O2        0.902775092429938    0.817956373297470    0.639132577228735  0.0000
  O3     O3        0.583957201713215    0.205377337176799    0.617001490758758  0.0000
  O2     O2        0.094761377283516    0.826959991796468    0.354134193413141  0.0000
  O2     O2        0.402684011923331    0.200816217507023    0.367525987578639  0.0000
  O2     O2        0.983190680550689    0.996160864932739    0.474673680009746  0.0000
  O2     O2        0.498033952923084    0.982230652496835    0.489862043713772  0.0000
  O2     O2        0.992985075541802    0.026819447026521    0.224691173700801  0.0000
  O2     O2        0.500403545011232    0.999408605137834    0.240416635312113  0.0000
  O2     O2        0.019457524423292    0.017533914175526    0.719315552624201  0.0000
  O2     O2        0.486725189058713    0.984542506068156    0.737767252713057  0.0000
  O2     O2        0.596203388834792    0.194061855653274    0.107643282032966  0.0000
  O2     O2        0.912280103068825    0.793166934002588    0.096264706266622  0.0000
  O3     O3        0.419539941927619    0.211600344802041    0.889577185886365  0.0000
  O2     O2        0.099769001635496    0.819311856303624    0.876836586867651  0.0000
  O2     O2        0.372333485335695    0.887914811266003    0.888618089913475  0.0000
  O2     O2        0.119449739172596    0.166507259877990    0.870426153527445  0.0000
  O3     O3        0.622292308028044    0.855207976148384    0.131415452755902  0.0000
  O2     O2        0.870650330458315    0.128450170322946    0.094635412981513  0.0000
  O2     O2        0.508788855966151    0.955585095427435    0.988440544228632  0.0000
  O2     O2        0.993177077703440    0.036342814999892    0.969885087362711  0.0000
  O3     O3        0.126814822342824    0.505291072841521    0.291950429440674  0.0000
  O2     O2        0.362183882602382    0.525997919425536    0.301599416867848  0.0000
  O2     O2        0.864013491608470    0.491526194141708    0.684198757475663  0.0000
  O3     O3        0.630523489192761    0.540630095228879    0.699220246165853  0.0000
  O3     O3        0.255263895626270    0.282579100029927    0.329551660939087  0.0000
  O2     O2        0.240200982123657    0.735799889551064    0.313758559898390  0.0000
  O3     O3        0.745019556767378    0.279564048747840    0.655190037704851  0.0000
  O2     O2        0.754963404538699    0.733658557385597    0.669271043827098  0.0000
  O3     O3        0.160995020545612    0.232746660485295    0.112317126609068  0.0000
  O2     O2        0.341170069571310    0.775767732209052    0.125074733633468  0.0000
  O2     O2        0.833894696021687    0.241203904404835    0.857895883795682  0.0000
  O3     O3        0.662348910335076    0.793062399379783    0.865722884116324  0.0000
  O2     O2        0.850276701802881    0.727725912591453    0.868659044406470  0.0000
  O3     O3        0.638451989694361    0.250054433060320    0.866785980067215  0.0000
  O2     O2        0.140523290321302    0.755151809475136    0.117423029709815  0.0000
  O3     O3        0.352074637132816    0.270474013298660    0.132825848518723  0.0000
  O3     O3        0.624807235116299    0.513371607831950    0.030171020459741  0.0000
  O2     O2        0.871680844988649    0.469008623877220    0.039722917887372  0.0000
  O3     O3        0.373892525186619    0.546642583644718    0.946349622610573  0.0000
  O2     O2        0.131782487630555    0.493913775466784    0.951434897824126  0.0000
  O2     O2        0.740496987469388    0.293652846357042    0.054047514815151  0.0000
  O3     O3        0.763616505361937    0.707378742844527    0.075331509667608  0.0000
  O3     O3        0.255872667848884    0.294685980892988    0.915728605603880  0.0000
  O2     O2        0.243664932172595    0.723420018996381    0.930146059822983  0.0000
