data_c01361.vasp
_audit_creation_method             Generated by GULP
_audit_author_name                 Salvador R. G. Balestra
_symmetry_space_group_name_H-M     'P 1             '
_symmetry_Int_Tables_number        1

loop_
_symmetry_equiv_pos_site_id
_symmetry_equiv_pos_as_xyz
_cell_length_a                       17.0041
_cell_length_b                        7.6214
_cell_length_c                       10.3149
_cell_angle_alpha                   90.1616
_cell_angle_beta                    90.4747
_cell_angle_gamma                   89.3727

loop_
_atom_site_label
_atom_site_type_symbol
_atom_site_fract_x
_atom_site_fract_y
_atom_site_fract_z
_atom_site_charge
  Ge     Ge        0.160189999999943    0.293909999999983    0.273440000000051  0.0000
  Ge     Ge        0.681881755331740    0.258537787595467    0.024238036761607  0.0000
  Ge     Ge        0.181489516062794    0.723789801446903    0.968510715108381  0.0000
  Ge     Ge        0.157315091737060    0.310675060457014    0.961959566619051  0.0000
  Si     Si        0.057116228137009    0.987775045632602    0.361932385589714  0.0000
  Si     Si        0.460294677011633    0.966168103565306    0.370486444831170  0.0000
  Si     Si        0.954469410764992    0.976170236805138    0.614489316951104  0.0000
  Si     Si        0.555465734789696    0.974984576545256    0.634210888107849  0.0000
  Si     Si        0.573904952949451    0.975395078520134    0.130368100522058  0.0000
  Si     Si        0.963685616408085    0.973707879958345    0.097126313628068  0.0000
  Si     Si        0.459329573486244    0.978938409188795    0.894041844581619  0.0000
  Si     Si        0.069048188194028    0.995676802330540    0.855220033314314  0.0000
  Si     Si        0.356464772074211    0.661880644058805    0.283673279942914  0.0000
  Si     Si        0.852037531521374    0.286370505547966    0.704180108242413  0.0000
  Si     Si        0.661014555327420    0.666973919797914    0.718041777195660  0.0000
  Si     Si        0.841849088401504    0.687606665253795    0.705006500643172  0.0000
  Si     Si        0.671850255184317    0.260440717955859    0.716625761635810  0.0000
  Si     Si        0.176559934616374    0.709523297176773    0.273576301068125  0.0000
  Si     Si        0.341909705874493    0.263600550928454    0.280934398488020  0.0000
  Si     Si        0.849302413746268    0.688295806245658    0.007128161297838  0.0000
  Si     Si        0.341178575135112    0.269654972245310    0.974201872756372  0.0000
  Si     Si        0.364792987644974    0.661374435451973    0.980323023315494  0.0000
  Si     Si        0.666808013452204    0.663383715844214    0.018500388395563  0.0000
  Si     Si        0.865474068348654    0.291635252107129    0.008293920676178  0.0000
  O3     O3        0.094372496616612    0.178816749682927    0.366452916885990  0.0000
  O2     O2        0.414866803052914    0.781854563482825    0.367592824648554  0.0000
  O2     O2        0.909505135326981    0.163501638599769    0.620320065283693  0.0000
  O2     O2        0.600938488687219    0.787387737702763    0.635905971543247  0.0000
  O2     O2        0.891058798438497    0.820850002516802    0.618880319955327  0.0000
  O2     O2        0.618027863632730    0.132624547572722    0.630501505059548  0.0000
  O2     O2        0.127713359954825    0.843519188104646    0.364432392705192  0.0000
  O2     O2        0.398833687842411    0.124581823336996    0.350113693208157  0.0000
  O2     O2        0.000892415943008    0.959277690448058    0.482497457549374  0.0000
  O2     O2        0.501336124446324    0.987144628051249    0.508351240056146  0.0000
  O2     O2        0.004057569065036    0.956751913055220    0.235180197450459  0.0000
  O2     O2        0.526706726234369    0.970819305527769    0.262136717224765  0.0000
  O2     O2        0.016523770468254    0.955165209252320    0.730741316009276  0.0000
  O2     O2        0.499599881626320    0.998228834406137    0.756672879320464  0.0000
  O3     O3        0.640200677478513    0.121293589167029    0.134522447524072  0.0000
  O2     O2        0.893198596131469    0.834291224743472    0.091188975540237  0.0000
  O2     O2        0.387021487209376    0.115814964390885    0.899673069013845  0.0000
  O3     O3        0.147982935293745    0.879483264804449    0.860353685563314  0.0000
  O2     O2        0.429573082655694    0.779771078060650    0.910130541366927  0.0000
  O3     O3        0.092568634025305    0.197430012138818    0.862294197362277  0.0000
  O2     O2        0.614421096755050    0.785963796021443    0.109853406622996  0.0000
  O2     O2        0.931370143790699    0.172511467551514    0.078787860378172  0.0000
  O2     O2        0.519030303715933    0.030653528832102    0.008718234750079  0.0000
  O2     O2        0.025212007599060    0.926528194896671    0.984989915319129  0.0000
  O3     O3        0.140543947281126    0.516976858964836    0.277309535466982  0.0000
  O2     O2        0.377051555570649    0.457446690358320    0.307562511276538  0.0000
  O2     O2        0.871207898125729    0.489315012289453    0.675283911923618  0.0000
  O2     O2        0.641739772855029    0.461541715699729    0.700372415600845  0.0000
  O3     O3        0.254178917385560    0.253398370735785    0.333595198844037  0.0000
  O2     O2        0.266723846686476    0.699091447079312    0.325772709380656  0.0000
  O2     O2        0.761753487016931    0.246477100242263    0.667481992214342  0.0000
  O2     O2        0.749482264045400    0.705152924215194    0.670725480195806  0.0000
  O1     O1        0.147747780575714    0.229606102096577    0.115906769900451  0.0000
  O2     O2        0.366704171238826    0.709672658696923    0.132958133604336  0.0000
  O2     O2        0.866053245997044    0.245093762485227    0.855510925446066  0.0000
  O2     O2        0.652291226101450    0.718821263271828    0.868907700808068  0.0000
  O2     O2        0.854877922500872    0.736000667656111    0.855592346387963  0.0000
  O3     O3        0.668842098683877    0.198166453240707    0.864449808693023  0.0000
  O3     O3        0.176709646693385    0.786508751619463    0.129223101060112  0.0000
  O2     O2        0.334372147605456    0.226421167487335    0.127038917048745  0.0000
  O3     O3        0.642814546183647    0.466419653331363    0.043394927575036  0.0000
  O2     O2        0.887765181930377    0.495797870282406    0.031034728687504  0.0000
  O2     O2        0.386151697571503    0.455461094878859    0.957924176197401  0.0000
  O1     O1        0.134344856734813    0.527780317024794    0.950508283559535  0.0000
  O3     O3        0.780600244662125    0.255233718106311    0.063742578561039  0.0000
  O2     O2        0.759085788902872    0.686739844382613    0.051498781730195  0.0000
  O3     O3        0.254617952132572    0.282809082616993    0.915588427418649  0.0000
  O3     O3        0.278910256113558    0.697099724894538    0.925124988141624  0.0000
