data_c01375.vasp
_audit_creation_method             Generated by GULP
_audit_author_name                 Salvador R. G. Balestra
_symmetry_space_group_name_H-M     'P 1             '
_symmetry_Int_Tables_number        1

loop_
_symmetry_equiv_pos_site_id
_symmetry_equiv_pos_as_xyz
_cell_length_a                       17.0701
_cell_length_b                        7.6266
_cell_length_c                       10.2828
_cell_angle_alpha                   91.0446
_cell_angle_beta                    89.7215
_cell_angle_gamma                   89.5046

loop_
_atom_site_label
_atom_site_type_symbol
_atom_site_fract_x
_atom_site_fract_y
_atom_site_fract_z
_atom_site_charge
  Ge     Ge        0.160189999999943    0.293909999999983    0.273440000000051  0.0000
  Ge     Ge        0.840984087216178    0.682807402492261    0.005868990305749  0.0000
  Ge     Ge        0.171639595870088    0.670730104458884    0.943395962575813  0.0000
  Ge     Ge        0.358674672178644    0.630829911069904    0.943902390431535  0.0000
  Si     Si        0.056351753213192    0.991694655287833    0.353557689658728  0.0000
  Si     Si        0.458534274866600    0.973397389398136    0.349577426818365  0.0000
  Si     Si        0.951868389650528    0.973682701246889    0.604777974947372  0.0000
  Si     Si        0.553326568165932    0.971183691613131    0.613631960267176  0.0000
  Si     Si        0.562785454938592    0.969810124006780    0.098286228216030  0.0000
  Si     Si        0.952606870282478    0.970076061456083    0.098910835080744  0.0000
  Si     Si        0.449219980673061    0.953357029349440    0.861933141635105  0.0000
  Si     Si        0.060144330622402    0.959808353970466    0.854249905527279  0.0000
  Si     Si        0.353782487842714    0.668051553527300    0.253206056780377  0.0000
  Si     Si        0.848159582258876    0.280758409854807    0.688841672173417  0.0000
  Si     Si        0.659129744054801    0.663220734504952    0.702792574163950  0.0000
  Si     Si        0.839034136156458    0.686568775336907    0.696788446430656  0.0000
  Si     Si        0.667968796130829    0.261049485607970    0.695106940860285  0.0000
  Si     Si        0.173304508686702    0.704896998906710    0.251326004460380  0.0000
  Si     Si        0.343197970007281    0.265620028135444    0.270143210343392  0.0000
  Si     Si        0.672756394948056    0.254358673218471    0.998236245775661  0.0000
  Si     Si        0.336964549815106    0.233991113759801    0.966067224798079  0.0000
  Si     Si        0.154695516905891    0.270475430860224    0.968699743156765  0.0000
  Si     Si        0.657912079019431    0.651204097361625    0.008101508300133  0.0000
  Si     Si        0.854550896088002    0.278525662477970    0.990724212748214  0.0000
  O3     O3        0.096659187536085    0.179080001040001    0.370347817141535  0.0000
  O2     O2        0.410781833124916    0.793256988493908    0.336034945810401  0.0000
  O2     O2        0.904469148065460    0.158540305580896    0.599240698404194  0.0000
  O2     O2        0.598879830641170    0.786416127649183    0.627533108959326  0.0000
  O2     O2        0.890898077042596    0.813580318744646    0.609069645632268  0.0000
  O2     O2        0.615503285299285    0.129173433092111    0.610540342253941  0.0000
  O2     O2        0.125630203304607    0.847803124840782    0.337355277631550  0.0000
  O2     O2        0.399422029979072    0.139472143738233    0.351988120081082  0.0000
  O2     O2        0.003892255759607    0.947239149669104    0.477111532537582  0.0000
  O2     O2        0.505345661661280    0.968167301683605    0.482362319248268  0.0000
  O2     O2        0.000533096729192    0.989116367602048    0.229379230471457  0.0000
  O2     O2        0.521760508582636    0.996329649349081    0.236034648173990  0.0000
  O2     O2        0.008518697221413    0.974586703139072    0.727213087093328  0.0000
  O2     O2        0.491950222737551    0.005111555065431    0.729924928109921  0.0000
  O2     O2        0.632440748766044    0.110185780781048    0.086786784116914  0.0000
  O3     O3        0.887969910312663    0.821769678723742    0.111198062071548  0.0000
  O2     O2        0.369605079223346    0.068586245684386    0.882305332246090  0.0000
  O3     O3        0.122280436437619    0.804293459379937    0.838028966813509  0.0000
  O3     O3        0.426101216991758    0.751149225487034    0.857665590184139  0.0000
  O2     O2        0.103814464871420    0.143821841383656    0.876994540155888  0.0000
  O2     O2        0.596364544479761    0.771357420295401    0.088578939823085  0.0000
  O2     O2        0.911327509347187    0.155802837899675    0.071962928813931  0.0000
  O2     O2        0.502953012982571    0.006798945416275    0.983350513414142  0.0000
  O2     O2        0.007533167974206    0.908181638825290    0.978502816850020  0.0000
  O3     O3        0.137904875795189    0.514217289212396    0.275168326914223  0.0000
  O2     O2        0.375128491344528    0.464649117135866    0.279265864436200  0.0000
  O2     O2        0.867714116103991    0.485603416689950    0.671866259673886  0.0000
  O2     O2        0.638587039819204    0.460172220850234    0.673235675290968  0.0000
  O3     O3        0.255404531888615    0.261069702279589    0.324277274028479  0.0000
  O2     O2        0.263991991009501    0.704341278359962    0.296887375440848  0.0000
  O2     O2        0.758307466685201    0.244060450280908    0.649867656879434  0.0000
  O2     O2        0.747698364331877    0.703383799303723    0.657358513025502  0.0000
  O3     O3        0.146262578111362    0.213204019929723    0.116781089742280  0.0000
  O3     O3        0.364219252667669    0.708190435469154    0.102723328195432  0.0000
  O2     O2        0.862316910772273    0.228628452189076    0.838025131982880  0.0000
  O2     O2        0.651903263045892    0.702071294789523    0.856614577783217  0.0000
  O3     O3        0.848591730742628    0.744729392392854    0.845894408748566  0.0000
  O2     O2        0.661392642791573    0.208482470689555    0.845951562800834  0.0000
  O3     O3        0.170777576177317    0.754488323337900    0.100999980839898  0.0000
  O2     O2        0.341791317753677    0.198493895133292    0.120195013546575  0.0000
  O2     O2        0.636105074758865    0.447273857530760    0.028292282336209  0.0000
  O3     O3        0.880105452543410    0.474940407264695    0.018366939338516  0.0000
  O3     O3        0.382902706112813    0.410241914239143    0.933988499680507  0.0000
  O3     O3        0.127107857586371    0.468002646133492    0.947836941902766  0.0000
  O2     O2        0.764350457171703    0.253439004332082    0.033696241350563  0.0000
  O3     O3        0.744732983013916    0.684822355074642    0.055988610470792  0.0000
  O2     O2        0.246519033926025    0.262507698387856    0.927915402711163  0.0000
  O1     O1        0.265829610003905    0.659347479986726    0.887922463097298  0.0000
