data_c01323.vasp
_audit_creation_method             Generated by GULP
_audit_author_name                 Salvador R. G. Balestra
_symmetry_space_group_name_H-M     'P 1             '
_symmetry_Int_Tables_number        1

loop_
_symmetry_equiv_pos_site_id
_symmetry_equiv_pos_as_xyz
_cell_length_a                       17.1293
_cell_length_b                        7.6385
_cell_length_c                       10.2309
_cell_angle_alpha                   90.6605
_cell_angle_beta                    90.5596
_cell_angle_gamma                   89.9186

loop_
_atom_site_label
_atom_site_type_symbol
_atom_site_fract_x
_atom_site_fract_y
_atom_site_fract_z
_atom_site_charge
  Ge     Ge        0.160189999999943    0.293909999999983    0.273440000000051  0.0000
  Ge     Ge        0.147358511270128    0.712563360831715    0.282169225923268  0.0000
  Ge     Ge        0.644952309168736    0.366712260649401    0.030520957898315  0.0000
  Ge     Ge        0.831585833771141    0.340600911550343    0.030377115817426  0.0000
  Si     Si        0.042398610761512    0.013462535250983    0.367723696037660  0.0000
  Si     Si        0.448308144235739    0.029842001063816    0.363499236452672  0.0000
  Si     Si        0.939157552371050    0.024909724920035    0.616757923747906  0.0000
  Si     Si        0.542395663218984    0.032259694252051    0.629755409818010  0.0000
  Si     Si        0.551112093774905    0.048783013235391    0.119688555961559  0.0000
  Si     Si        0.942547158005366    0.045018046849908    0.108214018142403  0.0000
  Si     Si        0.435760740562883    0.030334583689264    0.880141235324955  0.0000
  Si     Si        0.049602439807199    0.025981393095902    0.862287092226720  0.0000
  Si     Si        0.331192024959139    0.738639484698325    0.275733290858364  0.0000
  Si     Si        0.827652769921241    0.319767498457931    0.718792876250223  0.0000
  Si     Si        0.655897241284640    0.741682096369569    0.707602944327023  0.0000
  Si     Si        0.835700533284712    0.725170152238784    0.708631545537787  0.0000
  Si     Si        0.648678117812499    0.338495820341698    0.717276802053096  0.0000
  Si     Si        0.343074935258681    0.335296377410701    0.269648490887599  0.0000
  Si     Si        0.841367431583397    0.738336575706366    0.010505765647808  0.0000
  Si     Si        0.337959194937898    0.344340282719892    0.963046053009256  0.0000
  Si     Si        0.145753179817043    0.717855247165956    0.972672321074992  0.0000
  Si     Si        0.325474273732349    0.740314894488459    0.968588571061941  0.0000
  Si     Si        0.158542239540839    0.313346566939724    0.963630074218365  0.0000
  Si     Si        0.659127755593890    0.764469432788023    0.011581239908994  0.0000
  O3     O3        0.111455747844374    0.154519619634385    0.373632351309779  0.0000
  O2     O2        0.386303756126732    0.872338653129491    0.355001866143724  0.0000
  O2     O2        0.881480707019662    0.189104855383798    0.635285642509643  0.0000
  O2     O2        0.602620561890490    0.869294628043051    0.620718467418955  0.0000
  O2     O2        0.891500377216999    0.842360473507336    0.619820863491375  0.0000
  O2     O2        0.590191840562019    0.213714252780192    0.635298933748519  0.0000
  O3     O3        0.083140333643511    0.826551756138678    0.379603919354138  0.0000
  O2     O2        0.406941612062208    0.216764921483118    0.342151817246959  0.0000
  O2     O2        0.976292526216317    0.042862187465984    0.474685847249278  0.0000
  O2     O2        0.486873405157559    0.030668982424171    0.504949862145275  0.0000
  O2     O2        0.004051967991065    0.031389269375768    0.224249354416791  0.0000
  O2     O2        0.516300548150805    0.999730641448486    0.258796475541244  0.0000
  O2     O2        0.009721923424630    0.025120557868561    0.720654549961706  0.0000
  O2     O2        0.487353301750855    0.009541078494470    0.753397952964540  0.0000
  O3     O3        0.577914896205689    0.248193462051586    0.117168659386456  0.0000
  O2     O2        0.887969021568671    0.873556570197492    0.101906753553946  0.0000
  O2     O2        0.395001250997653    0.221444004741320    0.878692789105210  0.0000
  O2     O2        0.089074762408158    0.835882047827347    0.883126028062262  0.0000
  O2     O2        0.370275376263346    0.879275052409630    0.880922944407470  0.0000
  O2     O2        0.112479200627716    0.183398109781231    0.865175410306509  0.0000
  O2     O2        0.627501344487947    0.928627138100614    0.094236652731169  0.0000
  O3     O3        0.888448632302993    0.212012210654163    0.129170994668676  0.0000
  O2     O2        0.487834032006955    0.004302112788022    0.008422688843054  0.0000
  O2     O2        0.985740319958001    0.068446657734408    0.970996996242122  0.0000
  O1     O1        0.124840981502046    0.499186197455258    0.300607432645576  0.0000
  O2     O2        0.360868790017014    0.539926023741390    0.298038099996647  0.0000
  O2     O2        0.856278484097838    0.519479986135528    0.695551535991772  0.0000
  O2     O2        0.627337485247725    0.541557858740428    0.689981119250779  0.0000
  O3     O3        0.257765875097521    0.288015256546205    0.317879350634740  0.0000
  O3     O3        0.243549980200207    0.755537108669075    0.325431283660184  0.0000
  O2     O2        0.737501754305748    0.301455362132876    0.672077995029399  0.0000
  O2     O2        0.746095956900686    0.757236525176934    0.664909717975634  0.0000
  O3     O3        0.150998102173413    0.241685887215266    0.109116627806068  0.0000
  O2     O2        0.333236031088283    0.785529781634216    0.122163060383535  0.0000
  O3     O3        0.832273382445459    0.269803369566167    0.869309968044920  0.0000
  O2     O2        0.648809273392194    0.803365579333331    0.857880040683191  0.0000
  O2     O2        0.849835821047764    0.788630705137045    0.858110167368966  0.0000
  O3     O3        0.640172461473399    0.298460614410334    0.868985450356758  0.0000
  O3     O3        0.135360415923812    0.776474757225326    0.121219296979316  0.0000
  O2     O2        0.347817953315202    0.295740656394141    0.114684933718122  0.0000
  O3     O3        0.617323233119498    0.584287742642682    0.044940627146354  0.0000
  O3     O3        0.872921895318610    0.546864892944900    0.036967625491038  0.0000
  O2     O2        0.360428098821495    0.546676022345570    0.939653710634220  0.0000
  O2     O2        0.124376906485395    0.511529428720829    0.956919664982157  0.0000
  O1     O1        0.738127845832742    0.336728945268461    0.086054760593605  0.0000
  O2     O2        0.750117292897920    0.738646979508662    0.047005497571933  0.0000
  O2     O2        0.248602872393417    0.313003828094626    0.919821811086593  0.0000
  O2     O2        0.234731804102445    0.746847480686398    0.927666308159702  0.0000
