data_c01337.vasp
_audit_creation_method             Generated by GULP
_audit_author_name                 Salvador R. G. Balestra
_symmetry_space_group_name_H-M     'P 1             '
_symmetry_Int_Tables_number        1

loop_
_symmetry_equiv_pos_site_id
_symmetry_equiv_pos_as_xyz
_cell_length_a                       17.0624
_cell_length_b                        7.6339
_cell_length_c                       10.2934
_cell_angle_alpha                   92.2610
_cell_angle_beta                    90.2299
_cell_angle_gamma                   90.1732

loop_
_atom_site_label
_atom_site_type_symbol
_atom_site_fract_x
_atom_site_fract_y
_atom_site_fract_z
_atom_site_charge
  Ge     Ge        0.160189999999943    0.293909999999983    0.273440000000051  0.0000
  Ge     Ge        0.350676889686988    0.342744114684713    0.270487576630127  0.0000
  Ge     Ge        0.649276570232292    0.347517385280230    0.016717670522089  0.0000
  Ge     Ge        0.160400348452055    0.276773970079887    0.962978717050463  0.0000
  Si     Si        0.042361629724260    0.012617345417781    0.351412539116090  0.0000
  Si     Si        0.449997934441609    0.032752966873811    0.355878195302062  0.0000
  Si     Si        0.942708849724819    0.988518084680498    0.606987120075216  0.0000
  Si     Si        0.544741597625783    0.998207235594431    0.615905928701266  0.0000
  Si     Si        0.552090440567670    0.036005234129642    0.105283538309220  0.0000
  Si     Si        0.946255913413526    0.038994915727423    0.090322689888346  0.0000
  Si     Si        0.437818453087322    0.009304570142941    0.865007182597988  0.0000
  Si     Si        0.055208086858950    0.989052557464763    0.850230414447431  0.0000
  Si     Si        0.327469155602622    0.750835745193411    0.261761402941430  0.0000
  Si     Si        0.830142795134450    0.290657411172167    0.707193836406527  0.0000
  Si     Si        0.658296738651644    0.711650315874876    0.700434991370361  0.0000
  Si     Si        0.838936449994797    0.691560975627734    0.694567932962317  0.0000
  Si     Si        0.650381523947353    0.307458807630658    0.707106162471603  0.0000
  Si     Si        0.148315823780532    0.700875149053504    0.263689085853258  0.0000
  Si     Si        0.845911822242503    0.720887319775551    0.996637131347076  0.0000
  Si     Si        0.348902316581567    0.328217895697213    0.968608924681749  0.0000
  Si     Si        0.145906366918920    0.676077146335884    0.954798540342301  0.0000
  Si     Si        0.325812701076603    0.722684390773643    0.955691166327921  0.0000
  Si     Si        0.664106432407859    0.750537265354688    0.003598942284800  0.0000
  Si     Si        0.832906148228737    0.325709672490642    0.012509237514802  0.0000
  O3     O3        0.106064776969942    0.163884879766239    0.374346085408862  0.0000
  O2     O2        0.374744037718798    0.905703873349534    0.335945797385523  0.0000
  O2     O2        0.884722611817217    0.151678223558042    0.631930898860713  0.0000
  O2     O2        0.604912815085796    0.835252777995195    0.614463972398158  0.0000
  O2     O2        0.893871457435867    0.807055646490555    0.605026383952695  0.0000
  O2     O2        0.592357750750868    0.181045216895479    0.623203794844597  0.0000
  O2     O2        0.085940294467775    0.826603496539615    0.334769586403688  0.0000
  O3     O3        0.417623667911287    0.228655621688001    0.361378618808210  0.0000
  O2     O2        0.981493037643468    0.006183119549505    0.468236096519905  0.0000
  O2     O2        0.495057373642506    0.985308803462181    0.485234397995838  0.0000
  O2     O2        0.994255401414689    0.051950705607806    0.222034777793111  0.0000
  O2     O2        0.510621772569802    0.997272427639476    0.239114587483361  0.0000
  O2     O2        0.011080198332436    0.985032723004734    0.713854798239466  0.0000
  O2     O2        0.483884239068066    0.983713237419609    0.732293812648404  0.0000
  O3     O3        0.583638016569407    0.233373663142409    0.106976177386077  0.0000
  O2     O2        0.902249555989449    0.851792757887257    0.077986428940170  0.0000
  O2     O2        0.398091526418398    0.201273653601912    0.870084066611577  0.0000
  O2     O2        0.083493167057443    0.794151541645474    0.881599049908531  0.0000
  O2     O2        0.371476110085219    0.858920772309548    0.869060962210877  0.0000
  O3     O3        0.128087641182736    0.120458216375487    0.849853542534079  0.0000
  O2     O2        0.627819130590871    0.910720783800429    0.087503452330748  0.0000
  O2     O2        0.884416096635023    0.197262872807465    0.096458135156204  0.0000
  O2     O2        0.494561270230196    0.987311299039099    0.986454489718466  0.0000
  O2     O2        0.001259200721977    0.067969106950561    0.966774909880047  0.0000
  O3     O3        0.144102162900441    0.511581266302989    0.320669594730588  0.0000
  O3     O3        0.350907506531519    0.563809654277622    0.314035618845248  0.0000
  O2     O2        0.858692178906703    0.485983079925919    0.673540287083263  0.0000
  O2     O2        0.630196783517784    0.510179546459350    0.681457343890746  0.0000
  O1     O1        0.258747711500591    0.259057452657944    0.289022088345011  0.0000
  O2     O2        0.235033689046654    0.784298452001428    0.285269919389229  0.0000
  O2     O2        0.739726321279952    0.265395329411832    0.663784840055493  0.0000
  O2     O2        0.748694069165136    0.726276905248853    0.657165634627469  0.0000
  O1     O1        0.128348149686997    0.248206384914582    0.117398859884386  0.0000
  O2     O2        0.344467063145695    0.756463755816353    0.107778365248881  0.0000
  O2     O2        0.834480071473801    0.263098656122461    0.860869490721709  0.0000
  O2     O2        0.651077088149726    0.776837356501824    0.850179347082450  0.0000
  O2     O2        0.855967288893485    0.753797059635242    0.843743734569332  0.0000
  O3     O3        0.638311996732404    0.272220600231015    0.857374435469949  0.0000
  O2     O2        0.130481936060813    0.682914479901458    0.109380992009565  0.0000
  O3     O3        0.384881548781112    0.319318050689024    0.111968375275715  0.0000
  O3     O3        0.626396669513224    0.566631300989166    0.037873211143575  0.0000
  O2     O2        0.868900184010709    0.522161951549688    0.027588974907554  0.0000
  O2     O2        0.352122764071051    0.524818450740898    0.914747633381790  0.0000
  O3     O3        0.135744147659656    0.478814139998506    0.903591551059527  0.0000
  O3     O3        0.745262820632310    0.321136103613806    0.064128749430580  0.0000
  O2     O2        0.756231538676055    0.751793625698827    0.036857357296588  0.0000
  O3     O3        0.260408145400998    0.265262602835503    0.980231376595317  0.0000
  O2     O2        0.233632272400145    0.746957918724760    0.928099814995477  0.0000
