data_c01374.vasp
_audit_creation_method             Generated by GULP
_audit_author_name                 Salvador R. G. Balestra
_symmetry_space_group_name_H-M     'P 1             '
_symmetry_Int_Tables_number        1

loop_
_symmetry_equiv_pos_site_id
_symmetry_equiv_pos_as_xyz
_cell_length_a                       17.0220
_cell_length_b                        7.6087
_cell_length_c                       10.3112
_cell_angle_alpha                   90.9749
_cell_angle_beta                    90.4029
_cell_angle_gamma                   89.9994

loop_
_atom_site_label
_atom_site_type_symbol
_atom_site_fract_x
_atom_site_fract_y
_atom_site_fract_z
_atom_site_charge
  Ge     Ge        0.160189999999943    0.293909999999983    0.273440000000051  0.0000
  Ge     Ge        0.835448060016653    0.713104560794698    0.000590738129875  0.0000
  Ge     Ge        0.335048908789167    0.245708985066044    0.952378196760539  0.0000
  Ge     Ge        0.858099954216320    0.300556942635411    0.007790459960597  0.0000
  Si     Si        0.057702198836181    0.984949895247277    0.356916851377422  0.0000
  Si     Si        0.460888966655429    0.968761487342415    0.345086698054552  0.0000
  Si     Si        0.956376893739316    0.963070792968363    0.610273512098588  0.0000
  Si     Si        0.558064366559690    0.949760577743427    0.607040041779201  0.0000
  Si     Si        0.557117111501569    0.974299577200678    0.087442423403234  0.0000
  Si     Si        0.949934013261334    0.987981798408219    0.108281867944941  0.0000
  Si     Si        0.445090475698569    0.961035772584156    0.850869736749120  0.0000
  Si     Si        0.056547392403534    0.963813827764778    0.867427791734748  0.0000
  Si     Si        0.355705062198626    0.662640160946044    0.253738696502847  0.0000
  Si     Si        0.854257364585659    0.271241539747811    0.702237644984869  0.0000
  Si     Si        0.661111347090345    0.643018382181706    0.686366591502577  0.0000
  Si     Si        0.840133333986491    0.679667231087210    0.693944517907349  0.0000
  Si     Si        0.674316365727085    0.243394998610143    0.696180940792108  0.0000
  Si     Si        0.174878440932019    0.701581799255622    0.263535356966960  0.0000
  Si     Si        0.342941881318085    0.256423760166753    0.261851910059639  0.0000
  Si     Si        0.672856083860921    0.260148210615835    0.000449145636089  0.0000
  Si     Si        0.170753319087864    0.681226465166153    0.961275726572911  0.0000
  Si     Si        0.353008485051676    0.649285319164489    0.953703940594771  0.0000
  Si     Si        0.151978535880304    0.282427917040202    0.963056401699617  0.0000
  Si     Si        0.652949057254026    0.655626647967103    0.990958723040974  0.0000
  O3     O3        0.093176215874586    0.178707053910915    0.362827135062970  0.0000
  O2     O2        0.414787439204343    0.783612375267356    0.337413727268155  0.0000
  O2     O2        0.912610458534407    0.151873524058429    0.615154037929914  0.0000
  O2     O2        0.601311709828987    0.760753984022459    0.603385531828354  0.0000
  O2     O2        0.893568930837099    0.803973000258691    0.605737844295667  0.0000
  O2     O2        0.623571516201008    0.101727648510534    0.616351996732652  0.0000
  O2     O2        0.131880200316481    0.852785197454687    0.346535416701217  0.0000
  O2     O2        0.400299098540394    0.131150384970631    0.343274521641601  0.0000
  O2     O2        0.006811574014076    0.946530899603237    0.481575800168663  0.0000
  O2     O2        0.508165876398646    0.975650048327849    0.478494085970971  0.0000
  O2     O2        0.001808809447124    0.951258276964964    0.233249052627317  0.0000
  O2     O2        0.522768851068192    0.985436471211239    0.230230628148503  0.0000
  O2     O2        0.016255724525337    0.941866951833805    0.728885746543489  0.0000
  O2     O2        0.500243550086654    0.963115367140109    0.727968652898058  0.0000
  O2     O2        0.626904312649109    0.115990782589407    0.081754072254803  0.0000
  O3     O3        0.870516908046137    0.875391281800491    0.102841054929363  0.0000
  O3     O3        0.376260942467497    0.101799807067824    0.842697666342346  0.0000
  O2     O2        0.127372355807849    0.823168466241209    0.873077128847981  0.0000
  O2     O2        0.407267233474959    0.767878802110134    0.863719388978881  0.0000
  O2     O2        0.088051196314115    0.163124660218939    0.885696734934048  0.0000
  O2     O2        0.587848783769077    0.776971353557582    0.059630370773307  0.0000
  O3     O3        0.925419685282233    0.190284740128446    0.102132305807684  0.0000
  O2     O2        0.491604142231977    0.023671420021782    0.981279554982440  0.0000
  O2     O2        0.994864608164930    0.917883345560907    0.979029117815851  0.0000
  O3     O3        0.139074876605913    0.513778241781827    0.294966216941172  0.0000
  O2     O2        0.375012509362346    0.457280098134898    0.271132774585039  0.0000
  O2     O2        0.872550946665956    0.479328384302525    0.689569631002247  0.0000
  O2     O2        0.641043534306428    0.437324985509240    0.664625416900218  0.0000
  O3     O3        0.255955702180017    0.252099793034565    0.319410811072051  0.0000
  O2     O2        0.267185084640732    0.701815983650310    0.300574873303977  0.0000
  O2     O2        0.765244035605293    0.231431224236590    0.654275639855152  0.0000
  O2     O2        0.750252298312869    0.680482147594812    0.641764326022301  0.0000
  O3     O3        0.148045779700018    0.231916633938475    0.112998948428152  0.0000
  O2     O2        0.365080304883883    0.712198702790786    0.103179787698999  0.0000
  O3     O3        0.866683833940898    0.220103203430329    0.850319431532412  0.0000
  O2     O2        0.652543094140019    0.694776514070292    0.837484122985444  0.0000
  O3     O3        0.841971960709617    0.759650418761258    0.837978995200137  0.0000
  O2     O2        0.670532245713584    0.204244097547735    0.848708537781752  0.0000
  O2     O2        0.165957043848186    0.742590815683518    0.111093438345286  0.0000
  O3     O3        0.340333965778934    0.189658383780785    0.113384142248067  0.0000
  O2     O2        0.631977424455234    0.451705803042801    0.016892427605269  0.0000
  O1     O1        0.881079368914694    0.516167245217254    0.025247644636851  0.0000
  O3     O3        0.377319542294060    0.449896810699552    0.933358181238660  0.0000
  O2     O2        0.130661611960554    0.489157139589866    0.945398223748064  0.0000
  O3     O3        0.761197960119912    0.268611255923160    0.051492687224486  0.0000
  O3     O3        0.738366253745807    0.695811942452461    0.045904871536499  0.0000
  O3     O3        0.237475432633707    0.249006554667770    0.907362534423115  0.0000
  O2     O2        0.261053222570446    0.671540307646823    0.916584449280014  0.0000
