data_c01396.vasp
_audit_creation_method             Generated by GULP
_audit_author_name                 Salvador R. G. Balestra
_symmetry_space_group_name_H-M     'P 1             '
_symmetry_Int_Tables_number        1

loop_
_symmetry_equiv_pos_site_id
_symmetry_equiv_pos_as_xyz
_cell_length_a                       17.0809
_cell_length_b                        7.6065
_cell_length_c                       10.2727
_cell_angle_alpha                   90.8440
_cell_angle_beta                    89.4528
_cell_angle_gamma                   89.5316

loop_
_atom_site_label
_atom_site_type_symbol
_atom_site_fract_x
_atom_site_fract_y
_atom_site_fract_z
_atom_site_charge
  Ge     Ge        0.160189999999943    0.293909999999983    0.273440000000051  0.0000
  Ge     Ge        0.178340261247322    0.674309294261744    0.944362614245178  0.0000
  Ge     Ge        0.364460432761784    0.628949897427010    0.950687497176724  0.0000
  Ge     Ge        0.662138928506798    0.645727040862493    0.019162338107096  0.0000
  Si     Si        0.056132755641113    0.987959031433126    0.354102713932279  0.0000
  Si     Si        0.459380889074380    0.976750661896589    0.358019373354951  0.0000
  Si     Si        0.956288445765612    0.973963038548461    0.611105211969699  0.0000
  Si     Si        0.557316667848965    0.972249470447995    0.618276958124262  0.0000
  Si     Si        0.566072996898944    0.963920789182364    0.110544601850830  0.0000
  Si     Si        0.958300115591923    0.962882034444001    0.096003628432666  0.0000
  Si     Si        0.455716419086931    0.951302922460161    0.869759936516564  0.0000
  Si     Si        0.069134753327567    0.964734996349052    0.854377022618263  0.0000
  Si     Si        0.356476286794967    0.668304409536074    0.260481689347463  0.0000
  Si     Si        0.852079901208274    0.280910830970804    0.690889870551195  0.0000
  Si     Si        0.661762096976691    0.666596747855674    0.710722617738161  0.0000
  Si     Si        0.842028706661953    0.683801705175529    0.704290087271840  0.0000
  Si     Si        0.672317181833360    0.259687811216467    0.701910982509283  0.0000
  Si     Si        0.176811792059345    0.707031372952664    0.252836276815669  0.0000
  Si     Si        0.343290990653574    0.264895542296655    0.279418444310463  0.0000
  Si     Si        0.678409429441197    0.240167800920048    0.005408699815048  0.0000
  Si     Si        0.845919303924508    0.672318297496166    0.009532330076772  0.0000
  Si     Si        0.343230412428228    0.232537237085141    0.975364519076265  0.0000
  Si     Si        0.161014495729531    0.274213066891932    0.968703723144523  0.0000
  Si     Si        0.859079661826435    0.273952813494174    0.993776532132026  0.0000
  O3     O3        0.093009202673408    0.180239493057787    0.365266781186331  0.0000
  O2     O2        0.414370493275349    0.792636334496908    0.342331106306642  0.0000
  O2     O2        0.908965291220964    0.158722162399282    0.601966400720289  0.0000
  O2     O2        0.603293728043226    0.786700097435422    0.627845654480272  0.0000
  O2     O2        0.894387166730675    0.816457764283349    0.622579795910356  0.0000
  O2     O2        0.619172003582339    0.131685720990507    0.615336117370826  0.0000
  O2     O2        0.128387818463771    0.851758712128637    0.336250166747652  0.0000
  O2     O2        0.397518853027498    0.138142367860124    0.364851939714409  0.0000
  O2     O2        0.008271691041881    0.942402296187413    0.483558329506645  0.0000
  O2     O2        0.507964129324871    0.971129879082087    0.488646456978485  0.0000
  O2     O2        0.996050808455426    0.970015852269301    0.236311010094295  0.0000
  O2     O2        0.520697587622651    0.012006428149946    0.242388447790585  0.0000
  O2     O2        0.012617394244145    0.978291629343288    0.733644278881288  0.0000
  O2     O2        0.496664542939693    0.005280631414701    0.736247620141933  0.0000
  O2     O2        0.641569773151070    0.088389474256925    0.092471497770817  0.0000
  O2     O2        0.895191188999702    0.807579056599824    0.095555372803080  0.0000
  O2     O2        0.375890339836523    0.065396545791667    0.893318057064325  0.0000
  O3     O3        0.130864309471876    0.808404484406311    0.836468081780219  0.0000
  O3     O3        0.433464186575455    0.748033900207003    0.865798824399042  0.0000
  O2     O2        0.113884726843355    0.148871617664846    0.870666296984021  0.0000
  O3     O3        0.597120804882190    0.765248731295787    0.114227113362023  0.0000
  O2     O2        0.918169624207965    0.151467502136612    0.071210879232531  0.0000
  O2     O2        0.511187456735742    0.001138360327898    0.988903172882213  0.0000
  O2     O2        0.022385725196310    0.916435624427216    0.986141866590444  0.0000
  O3     O3        0.140471429272500    0.516164927667196    0.275056341467030  0.0000
  O2     O2        0.375719743116327    0.463917702291486    0.289187434662391  0.0000
  O2     O2        0.871221737218010    0.485662045050678    0.669795530698214  0.0000
  O2     O2        0.642963686938250    0.460563432352816    0.687290386911478  0.0000
  O3     O3        0.254362660866900    0.259889563487557    0.328555148007651  0.0000
  O2     O2        0.266592087449475    0.707761419104725    0.302528292606213  0.0000
  O2     O2        0.762234573473998    0.243550150863702    0.653384388826119  0.0000
  O2     O2        0.751117111027825    0.705513134736384    0.666694240662630  0.0000
  O3     O3        0.148444862271704    0.214451336607643    0.115981006430446  0.0000
  O3     O3        0.368844406719545    0.706230967859314    0.109736140844972  0.0000
  O2     O2        0.866916505193061    0.230322547677956    0.840497333245502  0.0000
  O3     O3        0.648956533516039    0.714046312642721    0.861220185588778  0.0000
  O2     O2        0.849482079863572    0.725283465028958    0.857790928057176  0.0000
  O2     O2        0.667286990655775    0.201108778569301    0.851708296070610  0.0000
  O3     O3        0.177821888794380    0.756780578265833    0.102120633022375  0.0000
  O2     O2        0.345489333872445    0.196217108646657    0.129679414374570  0.0000
  O3     O3        0.639924481980358    0.427468503337960    0.038868610124251  0.0000
  O2     O2        0.881565990379639    0.475716526272618    0.023887512694533  0.0000
  O3     O3        0.390236543164689    0.408353964796302    0.943801625344003  0.0000
  O3     O3        0.133235985404314    0.471822988453558    0.947448402193442  0.0000
  O2     O2        0.770217592617983    0.242449476689136    0.039439573818444  0.0000
  O3     O3        0.758023251281692    0.678575786412589    0.061516590051420  0.0000
  O2     O2        0.253791217504335    0.267442673674878    0.934722706209156  0.0000
  O1     O1        0.273118757828624    0.659768100635679    0.890709404507804  0.0000
