data_c01358.vasp
_audit_creation_method             Generated by GULP
_audit_author_name                 Salvador R. G. Balestra
_symmetry_space_group_name_H-M     'P 1             '
_symmetry_Int_Tables_number        1

loop_
_symmetry_equiv_pos_site_id
_symmetry_equiv_pos_as_xyz
_cell_length_a                       17.0205
_cell_length_b                        7.5999
_cell_length_c                       10.3130
_cell_angle_alpha                   90.0719
_cell_angle_beta                    89.8371
_cell_angle_gamma                   90.0745

loop_
_atom_site_label
_atom_site_type_symbol
_atom_site_fract_x
_atom_site_fract_y
_atom_site_fract_z
_atom_site_charge
  Ge     Ge        0.160189999999943    0.293909999999983    0.273440000000051  0.0000
  Ge     Ge        0.679387700546938    0.220044630027665    0.003452008458158  0.0000
  Ge     Ge        0.344786859313471    0.249757134713811    0.966452684218997  0.0000
  Ge     Ge        0.655509539832858    0.632304131994899    0.009226019992981  0.0000
  Si     Si        0.055635701537753    0.982163950144359    0.353549425211928  0.0000
  Si     Si        0.459362623106887    0.967795976521816    0.361271601254685  0.0000
  Si     Si        0.963011572572800    0.970113438424095    0.617129870152652  0.0000
  Si     Si        0.564584946753520    0.955827487184236    0.613315232481451  0.0000
  Si     Si        0.563386848060530    0.947705215514964    0.111126301787475  0.0000
  Si     Si        0.955582084948992    0.963295084927462    0.097408942992279  0.0000
  Si     Si        0.459056228340738    0.967072718081810    0.866473310407369  0.0000
  Si     Si        0.070548080058959    0.969809394873717    0.863997631869698  0.0000
  Si     Si        0.356848029244683    0.662905924247295    0.265934176292619  0.0000
  Si     Si        0.859548428374419    0.279452684067401    0.701062864724867  0.0000
  Si     Si        0.665374546939159    0.649824058908229    0.703061546940709  0.0000
  Si     Si        0.845002499041064    0.680483753732764    0.708074600300608  0.0000
  Si     Si        0.680230948293560    0.241443474358647    0.696548112062080  0.0000
  Si     Si        0.175825305599486    0.702681284068330    0.262586368911060  0.0000
  Si     Si        0.343213267580918    0.255889789170274    0.275394257058518  0.0000
  Si     Si        0.840492670783003    0.676045541708369    0.012147117929713  0.0000
  Si     Si        0.181718706547998    0.687129760367782    0.960420119605968  0.0000
  Si     Si        0.364114811374668    0.653585156232900    0.966638179316032  0.0000
  Si     Si        0.161906889324209    0.288589557362110    0.962719713952592  0.0000
  Si     Si        0.861860960642209    0.281114967329196    0.005450961165382  0.0000
  O3     O3        0.090198312918981    0.177260863516457    0.357671315842654  0.0000
  O2     O2        0.413493802526156    0.782139131178234    0.353590408858139  0.0000
  O2     O2        0.921328353981506    0.160965882491709    0.621881517700951  0.0000
  O2     O2        0.608369387724028    0.766944157955827    0.612776587535544  0.0000
  O2     O2        0.897066033501829    0.819960455745519    0.630696649189086  0.0000
  O2     O2        0.628255638609531    0.113854174021113    0.605788960693736  0.0000
  O2     O2        0.130911437240282    0.853106726419202    0.342368131098614  0.0000
  O2     O2        0.398458049231561    0.129864089697405    0.361227709006305  0.0000
  O2     O2        0.005865796103672    0.942588978984148    0.481312728951835  0.0000
  O2     O2        0.507965782874130    0.969670473873322    0.492031453242391  0.0000
  O2     O2        0.998853819883722    0.947628809571587    0.232899622436509  0.0000
  O2     O2        0.520203909889333    0.990928824064630    0.244099811494049  0.0000
  O2     O2        0.028416675093919    0.952435228626562    0.727180501269462  0.0000
  O2     O2        0.511415173674054    0.977869071139919    0.739883238259733  0.0000
  O3     O3        0.644333328846015    0.054375841226202    0.099863753396341  0.0000
  O2     O2        0.884382386328176    0.823851096625855    0.096191431394292  0.0000
  O3     O3        0.389709480851446    0.106537504375301    0.862114931714670  0.0000
  O2     O2        0.142465454061881    0.831069492337222    0.867166168910168  0.0000
  O2     O2        0.422064114911262    0.772011101059539    0.880329971320545  0.0000
  O2     O2        0.101170055060244    0.169513871883090    0.880647772409243  0.0000
  O3     O3        0.585232865072798    0.744232036378766    0.097542285526282  0.0000
  O2     O2        0.924388264324297    0.162539068350408    0.081976241150646  0.0000
  O2     O2        0.510993975468979    0.020339585791642    0.991529003381093  0.0000
  O2     O2        0.012617067676218    0.913488523590539    0.979387914773586  0.0000
  O3     O3        0.139155397727500    0.514130589857620    0.292470674122611  0.0000
  O2     O2        0.375218696786522    0.456933467185207    0.285049422134550  0.0000
  O2     O2        0.879146164772408    0.485369365216884    0.680446335797730  0.0000
  O2     O2        0.647604654489599    0.441313618744283    0.688537811489751  0.0000
  O3     O3        0.254566973548768    0.251133239301595    0.326558984348261  0.0000
  O2     O2        0.267035077398764    0.702180174627390    0.305513936592375  0.0000
  O2     O2        0.771390290369820    0.238673962403454    0.651371395681313  0.0000
  O2     O2        0.755077444198529    0.689363634940385    0.659837896649945  0.0000
  O3     O3        0.154385755258972    0.235514132882697    0.112324300417316  0.0000
  O2     O2        0.372277143804029    0.715776809113256    0.116350792464389  0.0000
  O2     O2        0.865979475777999    0.232573682479587    0.852812837125259  0.0000
  O3     O3        0.650145657562286    0.704599971985872    0.850382358260179  0.0000
  O2     O2        0.844615631887312    0.726625285653785    0.860228609206243  0.0000
  O3     O3        0.675213459489593    0.167491661399836    0.841016842430873  0.0000
  O2     O2        0.171948903217565    0.746339930692539    0.109567058334362  0.0000
  O3     O3        0.345920334970382    0.189718663925636    0.127414055132329  0.0000
  O1     O1        0.632259150046535    0.416286466008861    0.025936547275346  0.0000
  O2     O2        0.882401914159769    0.486154294031672    0.030781880023663  0.0000
  O3     O3        0.388776765413208    0.453877789879775    0.950356438139942  0.0000
  O2     O2        0.141734193606345    0.495612347428382    0.942135525017695  0.0000
  O3     O3        0.775064082308967    0.244930909273876    0.054429025071445  0.0000
  O3     O3        0.751388470524134    0.666903258373023    0.058945220020913  0.0000
  O3     O3        0.249324963261004    0.256069156383326    0.913418952792696  0.0000
  O2     O2        0.273560660294210    0.677054643570790    0.923334293439172  0.0000
