data_c01339.vasp
_audit_creation_method             Generated by GULP
_audit_author_name                 Salvador R. G. Balestra
_symmetry_space_group_name_H-M     'P 1             '
_symmetry_Int_Tables_number        1

loop_
_symmetry_equiv_pos_site_id
_symmetry_equiv_pos_as_xyz
_cell_length_a                       17.0916
_cell_length_b                        7.6622
_cell_length_c                       10.2812
_cell_angle_alpha                   92.3672
_cell_angle_beta                    89.9719
_cell_angle_gamma                   90.0132

loop_
_atom_site_label
_atom_site_type_symbol
_atom_site_fract_x
_atom_site_fract_y
_atom_site_fract_z
_atom_site_charge
  Ge     Ge        0.160189999999943    0.293909999999983    0.273440000000051  0.0000
  Ge     Ge        0.350531884926968    0.279434467458372    0.275711150323106  0.0000
  Ge     Ge        0.669063054846012    0.299698272540135    0.026450805187705  0.0000
  Ge     Ge        0.856323252468178    0.310476228058195    0.023557964265782  0.0000
  Si     Si        0.055143300030596    0.989071176472192    0.355598814021845  0.0000
  Si     Si        0.461111594465442    0.983036492438203    0.357900615221609  0.0000
  Si     Si        0.957769580908575    0.963411912194928    0.614699688703145  0.0000
  Si     Si        0.560408163589456    0.960437873951542    0.614612912744882  0.0000
  Si     Si        0.564914499236878    0.997507784838793    0.104714108722283  0.0000
  Si     Si        0.953883392378110    0.997102395095715    0.102489941437869  0.0000
  Si     Si        0.452728837778985    0.964899962665047    0.861240751940560  0.0000
  Si     Si        0.067281739812547    0.966728121553349    0.860443130829139  0.0000
  Si     Si        0.352015550794461    0.684705121678359    0.267551682645687  0.0000
  Si     Si        0.850565025598294    0.270483004140594    0.711663205003080  0.0000
  Si     Si        0.666863037405476    0.666066605945939    0.703120159662033  0.0000
  Si     Si        0.847651592818041    0.673294879830448    0.700911054234510  0.0000
  Si     Si        0.671156835399212    0.262367147239068    0.714840297520543  0.0000
  Si     Si        0.169249699345419    0.698927484635137    0.263262500001398  0.0000
  Si     Si        0.848761145274818    0.703302154795485    0.002090986716119  0.0000
  Si     Si        0.347614673049061    0.262736275300386    0.966029427464331  0.0000
  Si     Si        0.172839846301867    0.676388086487893    0.960029271551034  0.0000
  Si     Si        0.353649009667430    0.663117041437275    0.964692224892053  0.0000
  Si     Si        0.165191417694056    0.277001752239662    0.963801106054551  0.0000
  Si     Si        0.665699637203253    0.692150986289604    0.003426345640576  0.0000
  O3     O3        0.093604437043841    0.178732166413082    0.361775009142045  0.0000
  O2     O2        0.398132422426417    0.826167084992721    0.356776434959100  0.0000
  O2     O2        0.907472334701493    0.140645299387326    0.629704727355041  0.0000
  O2     O2        0.611281795589857    0.782538269041034    0.615616306898466  0.0000
  O2     O2        0.901160715341895    0.794413269320222    0.613583575976590  0.0000
  O2     O2        0.615552744520181    0.129558065212770    0.633583207916233  0.0000
  O2     O2        0.126449443359108    0.850440769843379    0.348097642653169  0.0000
  O3     O3        0.413011358384082    0.161125958236169    0.369003405633732  0.0000
  O2     O2        0.001033794709387    0.959262399596896    0.478012088394631  0.0000
  O2     O2        0.521602486615945    0.966812422680902    0.474165933410675  0.0000
  O2     O2        0.001353779403382    0.954680740930584    0.229751775326895  0.0000
  O2     O2        0.508785291660546    0.967000299251889    0.223987776571717  0.0000
  O2     O2        0.024283004067329    0.953425417532121    0.723385290470790  0.0000
  O2     O2        0.491281333914562    0.959704954877933    0.719884182292705  0.0000
  O3     O3        0.608833707336968    0.179677101660788    0.122625513857592  0.0000
  O2     O2        0.878853548487722    0.867894865313373    0.089189717584212  0.0000
  O2     O2        0.392948862151142    0.127661758742123    0.869340367443520  0.0000
  O2     O2        0.125905986527235    0.802441100784747    0.867408990130798  0.0000
  O2     O2        0.408460339117115    0.780997590765709    0.877447010846920  0.0000
  O2     O2        0.114228635017244    0.149614140244329    0.869088627291319  0.0000
  O2     O2        0.630375587952664    0.845667203643385    0.095056702160708  0.0000
  O3     O3        0.922805518931890    0.192813271404361    0.110686701807114  0.0000
  O2     O2        0.518168755132809    0.994886345018956    0.969873180759012  0.0000
  O2     O2        0.005577399288580    0.956519971265192    0.975545336565842  0.0000
  O3     O3        0.134920639350160    0.511561285616445    0.292150658102464  0.0000
  O3     O3        0.380973457379622    0.493430633844274    0.295614401517245  0.0000
  O2     O2        0.873379113122262    0.470973494689808    0.683431679457592  0.0000
  O2     O2        0.644655291393503    0.461408534212262    0.688637030434512  0.0000
  O1     O1        0.254675056619516    0.258426895112311    0.320192613229624  0.0000
  O2     O2        0.260357493697479    0.698293339553537    0.302823473896616  0.0000
  O2     O2        0.760870142931223    0.235656185735434    0.667740872718005  0.0000
  O2     O2        0.756878179326203    0.693291038553536    0.660850794205897  0.0000
  O3     O3        0.149351186830117    0.228945926781695    0.111011265577102  0.0000
  O2     O2        0.363877383562504    0.724165951423839    0.115349972274199  0.0000
  O3     O3        0.859349621103622    0.235880397852944    0.862600822919110  0.0000
  O2     O2        0.653752926974629    0.734620202035406    0.852080875999106  0.0000
  O2     O2        0.859420396563770    0.741035882742174    0.849915816219227  0.0000
  O3     O3        0.666515286436172    0.224114732090366    0.865680405495396  0.0000
  O2     O2        0.161487308979319    0.738264372198937    0.110406982045798  0.0000
  O3     O3        0.360446287867189    0.211992517257637    0.113578336067152  0.0000
  O3     O3        0.629388170421859    0.507824027899163    0.035007793770711  0.0000
  O3     O3        0.889899616465388    0.523974555394544    0.035574470030847  0.0000
  O2     O2        0.378326304558093    0.460041150419375    0.945291877145796  0.0000
  O2     O2        0.141644052671842    0.477826394844141    0.939854087544525  0.0000
  O1     O1        0.763308397307721    0.286858209841463    0.080474811044172  0.0000
  O2     O2        0.757694263984729    0.669550986587880    0.031930293716691  0.0000
  O2     O2        0.256302993582815    0.250852312068798    0.931192640375529  0.0000
  O2     O2        0.263928152449235    0.686848945192898    0.921501246174553  0.0000
