data_c01387.vasp
_audit_creation_method             Generated by GULP
_audit_author_name                 Salvador R. G. Balestra
_symmetry_space_group_name_H-M     'P 1             '
_symmetry_Int_Tables_number        1

loop_
_symmetry_equiv_pos_site_id
_symmetry_equiv_pos_as_xyz
_cell_length_a                       17.1107
_cell_length_b                        7.6082
_cell_length_c                       10.3066
_cell_angle_alpha                   90.3936
_cell_angle_beta                    89.8750
_cell_angle_gamma                   89.8500

loop_
_atom_site_label
_atom_site_type_symbol
_atom_site_fract_x
_atom_site_fract_y
_atom_site_fract_z
_atom_site_charge
  Ge     Ge        0.160189999999943    0.293909999999983    0.273440000000051  0.0000
  Ge     Ge        0.342557469035204    0.228631763738556    0.965127415701159  0.0000
  Ge     Ge        0.181974618159954    0.692568673716691    0.953984404207755  0.0000
  Ge     Ge        0.661918378053035    0.640219575876764    0.009875610232345  0.0000
  Si     Si        0.057905437358725    0.980580281055813    0.352636803948937  0.0000
  Si     Si        0.461220901981625    0.963408217984341    0.356128850212190  0.0000
  Si     Si        0.958904306964704    0.963686905547994    0.608678150844014  0.0000
  Si     Si        0.562801536798638    0.953317549077710    0.612304770911439  0.0000
  Si     Si        0.564512661713563    0.956907922853132    0.106611525299238  0.0000
  Si     Si        0.957809632556245    0.951732724628626    0.094799481171431  0.0000
  Si     Si        0.457310858523276    0.947570623229250    0.864265860364557  0.0000
  Si     Si        0.067822610937068    0.974036403397403    0.855139682798387  0.0000
  Si     Si        0.358898731720900    0.652402944467164    0.260168034529744  0.0000
  Si     Si        0.854886726942820    0.266851083010030    0.695513555566333  0.0000
  Si     Si        0.666391603981665    0.651833570676935    0.701767851747290  0.0000
  Si     Si        0.846317564553256    0.669867873495607    0.705754519915435  0.0000
  Si     Si        0.674592106126651    0.245887413667453    0.698954056695251  0.0000
  Si     Si        0.177708390045425    0.700268190679584    0.263219157823604  0.0000
  Si     Si        0.345396036502992    0.249258696637998    0.272329744198446  0.0000
  Si     Si        0.677020987374022    0.233691100019780    0.001251861005207  0.0000
  Si     Si        0.846015297069131    0.661013397522815    0.009916712409166  0.0000
  Si     Si        0.363665274856081    0.637084662006171    0.957020777262733  0.0000
  Si     Si        0.159406499914791    0.284632943348284    0.964704782448383  0.0000
  Si     Si        0.858399643442027    0.262292569230078    0.996727710792514  0.0000
  O3     O3        0.093772327490728    0.173858175070214    0.361724739338925  0.0000
  O2     O2        0.417535871313800    0.776962268823689    0.339283583133924  0.0000
  O2     O2        0.910394281823046    0.146210747651635    0.605994758689487  0.0000
  O2     O2        0.611419639005002    0.771218324326321    0.611301391619524  0.0000
  O2     O2        0.899599699572527    0.801964179906492    0.625127088708403  0.0000
  O2     O2        0.622594120890803    0.117462564255394    0.610600510498970  0.0000
  O2     O2        0.132382512557299    0.849511286301889    0.345107462029634  0.0000
  O2     O2        0.398221231007774    0.121502604281856    0.361048327189481  0.0000
  O2     O2        0.004514610004542    0.937312475214253    0.475270568739929  0.0000
  O2     O2        0.507550417858730    0.960412475601401    0.489366755589143  0.0000
  O2     O2        0.004137730245311    0.954532961575926    0.227524474028369  0.0000
  O2     O2        0.524175983362920    0.995320645105460    0.243405127295643  0.0000
  O2     O2        0.022011433316296    0.968196933597540    0.721775277597415  0.0000
  O2     O2        0.508549039933335    0.967046270045291    0.737600761713250  0.0000
  O2     O2        0.639634397353541    0.082979838053391    0.088959038889546  0.0000
  O2     O2        0.895698639534889    0.793420439881830    0.098184566205282  0.0000
  O3     O3        0.385312844015283    0.080901325012399    0.860791929345500  0.0000
  O3     O3        0.137800489849719    0.835253070135063    0.849397507390343  0.0000
  O2     O2        0.428549723899255    0.746165477025202    0.877386167078928  0.0000
  O2     O2        0.098778471810640    0.171073730233483    0.878982041979809  0.0000
  O3     O3        0.596003760254821    0.758974234536649    0.100454319922106  0.0000
  O2     O2        0.913887498009349    0.138210375896737    0.080309628639648  0.0000
  O2     O2        0.505010226031162    0.004982013243325    0.992080193409111  0.0000
  O2     O2        0.015064565897757    0.911136018764875    0.975412578640486  0.0000
  O3     O3        0.156704324514105    0.511392553186834    0.320332207401425  0.0000
  O2     O2        0.362274164229403    0.453002498811982    0.312218595096621  0.0000
  O2     O2        0.875275171516958    0.471435739571517    0.675238338121025  0.0000
  O2     O2        0.646289850493870    0.446439587494608    0.679835821133836  0.0000
  O3     O3        0.254105468312416    0.213857921067423    0.291923501604233  0.0000
  O2     O2        0.271290269363968    0.728642505846043    0.273854105731354  0.0000
  O2     O2        0.765185486400283    0.229413692637679    0.657340364146860  0.0000
  O2     O2        0.756342547198918    0.689171428751513    0.662965522512067  0.0000
  O3     O3        0.131788722089353    0.283719224615199    0.113325550593180  0.0000
  O2     O2        0.384534659026202    0.650245245558355    0.110085195466188  0.0000
  O2     O2        0.870105707229309    0.215166959799034    0.845029036461076  0.0000
  O3     O3        0.651450182812977    0.703374070436067    0.850287941622332  0.0000
  O2     O2        0.851646252555713    0.714092966193328    0.858415196828605  0.0000
  O2     O2        0.665781578029183    0.190148587774442    0.848621737095953  0.0000
  O3     O3        0.153876020254678    0.718108951286601    0.113559460416479  0.0000
  O3     O3        0.370125080062531    0.210272612491536    0.124808619878289  0.0000
  O3     O3        0.639230671146778    0.421418616256906    0.030706659345353  0.0000
  O2     O2        0.880900550450185    0.464232887435209    0.025868904976242  0.0000
  O3     O3        0.363858603897547    0.438092766500413    0.910441418162580  0.0000
  O3     O3        0.162871108554074    0.478284989839118    0.907790844665830  0.0000
  O2     O2        0.768577103663197    0.234910750185030    0.035832003880969  0.0000
  O3     O3        0.757497126900057    0.670879539225576    0.056644355846008  0.0000
  O3     O3        0.243755677354668    0.192542457686350    0.958934649241807  0.0000
  O3     O3        0.280530295087695    0.728694307717070    0.937529488418719  0.0000
