data_c01355.vasp
_audit_creation_method             Generated by GULP
_audit_author_name                 Salvador R. G. Balestra
_symmetry_space_group_name_H-M     'P 1             '
_symmetry_Int_Tables_number        1

loop_
_symmetry_equiv_pos_site_id
_symmetry_equiv_pos_as_xyz
_cell_length_a                       17.0857
_cell_length_b                        7.6353
_cell_length_c                       10.3224
_cell_angle_alpha                   90.9348
_cell_angle_beta                    90.1772
_cell_angle_gamma                   89.6676

loop_
_atom_site_label
_atom_site_type_symbol
_atom_site_fract_x
_atom_site_fract_y
_atom_site_fract_z
_atom_site_charge
  Ge     Ge        0.160189999999943    0.293909999999983    0.273440000000051  0.0000
  Ge     Ge        0.677189925055313    0.262792122966936    0.015749503425569  0.0000
  Ge     Ge        0.345403980564601    0.238156313216120    0.970241935374115  0.0000
  Ge     Ge        0.183354767538700    0.694934452615304    0.959178835324871  0.0000
  Si     Si        0.057730699351301    0.984792089748123    0.358329015477602  0.0000
  Si     Si        0.459704593518689    0.958200210201661    0.359639665575160  0.0000
  Si     Si        0.958445977835491    0.965292417062330    0.614556724723248  0.0000
  Si     Si        0.562263778808465    0.957282838953025    0.615411698011873  0.0000
  Si     Si        0.567601260461136    0.978453151149752    0.110788441937204  0.0000
  Si     Si        0.959468533676031    0.968040937150589    0.099101098639543  0.0000
  Si     Si        0.460009439628834    0.954365192402623    0.869094714376874  0.0000
  Si     Si        0.069422118488690    0.975677321808711    0.860752135989066  0.0000
  Si     Si        0.357313249137093    0.649989594511131    0.272445724998657  0.0000
  Si     Si        0.853000960597374    0.270989866118235    0.702315531349029  0.0000
  Si     Si        0.667415306053122    0.658348155821627    0.705543409946987  0.0000
  Si     Si        0.848286232497438    0.672077609954802    0.703447571390962  0.0000
  Si     Si        0.673144112221146    0.252736884932398    0.708150688209426  0.0000
  Si     Si        0.176150195844794    0.699511245043421    0.268190746125974  0.0000
  Si     Si        0.346035109084980    0.248692334209588    0.276325566870605  0.0000
  Si     Si        0.848799708475517    0.678603747751009    0.004861210728843  0.0000
  Si     Si        0.365936289031516    0.644605352212101    0.969015273102951  0.0000
  Si     Si        0.160752173512481    0.288168031221210    0.966212019400651  0.0000
  Si     Si        0.665998846534209    0.666986089422135    0.005570994254189  0.0000
  Si     Si        0.860819802803861    0.281148394697657    0.006478367286995  0.0000
  O3     O3        0.095296537108140    0.175532776576367    0.363525619349554  0.0000
  O2     O2        0.413797108315900    0.773999049234184    0.357405727752528  0.0000
  O2     O2        0.908675014171110    0.145276506259968    0.617186367438604  0.0000
  O2     O2        0.612848664698184    0.777747602026744    0.615832703886931  0.0000
  O2     O2        0.900018935778435    0.800584979854866    0.618439019282471  0.0000
  O2     O2        0.619104472970895    0.124904460555675    0.621943259285550  0.0000
  O2     O2        0.130036000424551    0.848075822709246    0.349605178017571  0.0000
  O2     O2        0.397965831557688    0.119135985709932    0.364573558565113  0.0000
  O2     O2        0.007368709693368    0.949399190591036    0.484497438716943  0.0000
  O2     O2        0.514279824115341    0.966936947447597    0.484030973768361  0.0000
  O2     O2        0.000020830897807    0.960058462626853    0.237150393273922  0.0000
  O2     O2        0.514087486154481    0.968925797299564    0.234948902348800  0.0000
  O2     O2        0.018257783704860    0.962720270079601    0.732925498332182  0.0000
  O2     O2        0.501228080557804    0.958260474388417    0.731794112930559  0.0000
  O3     O3        0.629128415804908    0.133889549092046    0.123313130195633  0.0000
  O2     O2        0.891887876710376    0.821374735376654    0.094213633730716  0.0000
  O3     O3        0.387947926259241    0.087825652816828    0.867494537069024  0.0000
  O3     O3        0.139152818378603    0.836069787885629    0.854062880535115  0.0000
  O2     O2        0.432206297451636    0.756889649005471    0.897876734691864  0.0000
  O2     O2        0.102345612785089    0.172139684778088    0.876850183382236  0.0000
  O2     O2        0.615074212468784    0.796802065977853    0.093958607809000  0.0000
  O2     O2        0.922966614024549    0.161408339441946    0.081123674884496  0.0000
  O2     O2        0.517065990850922    0.023781212555056    0.983187405670800  0.0000
  O2     O2        0.020712587784541    0.920165995319038    0.986915951483879  0.0000
  O3     O3        0.154840050484938    0.510474321378050    0.321478774989442  0.0000
  O2     O2        0.361496716056512    0.450784196583852    0.321791399380844  0.0000
  O2     O2        0.875494300249277    0.472164789708817    0.675663556042688  0.0000
  O2     O2        0.645714333748377    0.453993335339555    0.688503742288320  0.0000
  O3     O3        0.254359855595870    0.213230575368730    0.290284262698834  0.0000
  O2     O2        0.269538431966946    0.725803198785068    0.284183620175386  0.0000
  O2     O2        0.763280334938551    0.234547237249727    0.662619894436806  0.0000
  O2     O2        0.757200805750676    0.691310595077658    0.665737321596890  0.0000
  O3     O3        0.131226958910390    0.282137584809431    0.113474811779158  0.0000
  O2     O2        0.383474719498108    0.650438502893002    0.123070418530796  0.0000
  O2     O2        0.864043638492252    0.230879301555880    0.853922952494357  0.0000
  O2     O2        0.654032788102553    0.716659540620532    0.854902363515649  0.0000
  O2     O2        0.859782922736638    0.724503393818490    0.854100054291487  0.0000
  O3     O3        0.666459107861237    0.197011158783891    0.856020024141816  0.0000
  O3     O3        0.154529525087831    0.719775742023398    0.118071289931779  0.0000
  O3     O3        0.373487305511135    0.215552712480510    0.129549664387239  0.0000
  O3     O3        0.639598422325015    0.471972504540522    0.031102235579241  0.0000
  O2     O2        0.883921570735045    0.484955588575425    0.029724606475884  0.0000
  O3     O3        0.367638697129171    0.446618136192054    0.918439465146673  0.0000
  O3     O3        0.163200594353326    0.481781790580421    0.911840814044882  0.0000
  O3     O3        0.774566846361930    0.251443274884422    0.058332948876732  0.0000
  O2     O2        0.757647343386859    0.683177435437553    0.041535232263950  0.0000
  O3     O3        0.246581824050178    0.202533931459546    0.963379847508086  0.0000
  O3     O3        0.282087943912567    0.732041425280675    0.944871631387987  0.0000
