data_c01384.vasp
_audit_creation_method             Generated by GULP
_audit_author_name                 Salvador R. G. Balestra
_symmetry_space_group_name_H-M     'P 1             '
_symmetry_Int_Tables_number        1

loop_
_symmetry_equiv_pos_site_id
_symmetry_equiv_pos_as_xyz
_cell_length_a                       17.0170
_cell_length_b                        7.6264
_cell_length_c                       10.3002
_cell_angle_alpha                   90.1275
_cell_angle_beta                    90.8314
_cell_angle_gamma                   89.1196

loop_
_atom_site_label
_atom_site_type_symbol
_atom_site_fract_x
_atom_site_fract_y
_atom_site_fract_z
_atom_site_charge
  Ge     Ge        0.160189999999943    0.293909999999983    0.273440000000051  0.0000
  Ge     Ge        0.859609233256955    0.646989627648553    0.016668119663295  0.0000
  Ge     Ge        0.671822316457287    0.710368704724567    0.018608008987721  0.0000
  Ge     Ge        0.831495046658625    0.242513183752726    0.003897234067995  0.0000
  Si     Si        0.047916343557583    0.004251380985829    0.359125799123399  0.0000
  Si     Si        0.451436831362833    0.005149911514089    0.355682633564755  0.0000
  Si     Si        0.945180323680898    0.980011591578311    0.610488859125899  0.0000
  Si     Si        0.547737340887171    0.006332597653823    0.619773059307734  0.0000
  Si     Si        0.557599326012021    0.000670599381651    0.106408371152273  0.0000
  Si     Si        0.947863023555629    0.967555176922777    0.103877544041264  0.0000
  Si     Si        0.443332244362678    0.985666930673037    0.869645113303490  0.0000
  Si     Si        0.052481654375150    0.000982149977225    0.860706348297346  0.0000
  Si     Si        0.338682370508037    0.713349005730929    0.262966822576171  0.0000
  Si     Si        0.829799501647377    0.269524435648374    0.696770581962953  0.0000
  Si     Si        0.665875851745629    0.715588910903513    0.709524522956531  0.0000
  Si     Si        0.845443055505165    0.674722503500905    0.708431826533484  0.0000
  Si     Si        0.651081766170748    0.313077504463446    0.703358545551727  0.0000
  Si     Si        0.155941376306254    0.704236790548885    0.264809914185399  0.0000
  Si     Si        0.344769086210885    0.311335854979561    0.274309343732254  0.0000
  Si     Si        0.648258797493716    0.314860244916452    0.006846690546584  0.0000
  Si     Si        0.342965109981173    0.300556270516921    0.969613563800506  0.0000
  Si     Si        0.152333838175028    0.689858632949117    0.963738083812022  0.0000
  Si     Si        0.334336061738492    0.700160211450094    0.960753620202478  0.0000
  Si     Si        0.161728512394102    0.285494519849464    0.965095962557334  0.0000
  O3     O3        0.101832127212560    0.172662431286001    0.372773573394314  0.0000
  O2     O2        0.389312386324788    0.847823685478438    0.347312414193482  0.0000
  O2     O2        0.881310733857926    0.138949757017001    0.607536712299465  0.0000
  O2     O2        0.613562327023178    0.852782489367012    0.626508620271959  0.0000
  O2     O2        0.903737816391535    0.792371455906081    0.624139073097443  0.0000
  O2     O2        0.588735033478983    0.196196832647878    0.624316550832501  0.0000
  O2     O2        0.105210041617744    0.835037633204730    0.352164775061075  0.0000
  O2     O2        0.405521815000534    0.191333477290298    0.356385537567954  0.0000
  O2     O2        0.988293556336007    0.980217155405253    0.474412816606383  0.0000
  O2     O2        0.501552666717118    0.985912733642741    0.485789453539438  0.0000
  O2     O2        0.997628341786116    0.028154008710242    0.227131245998305  0.0000
  O2     O2        0.509630952766493    0.993918080725124    0.236661135714418  0.0000
  O2     O2        0.010529896558150    0.010271399838944    0.721730673193442  0.0000
  O2     O2        0.484970770961523    0.987601088260923    0.732777855967424  0.0000
  O2     O2        0.587648949999458    0.197103887262982    0.084568286821078  0.0000
  O3     O3        0.930975814450770    0.762584746809203    0.101475427853919  0.0000
  O2     O2        0.401187922145091    0.173857444308926    0.891559734939208  0.0000
  O2     O2        0.095310691095399    0.810697752286173    0.875245614460832  0.0000
  O2     O2        0.379654941800873    0.831073680639156    0.867662352809846  0.0000
  O2     O2        0.114922213328875    0.157463475090600    0.868590046289564  0.0000
  O3     O3        0.630148334974831    0.867345863325542    0.116489287983579  0.0000
  O3     O3        0.864514248550727    0.069441214956184    0.096852233367269  0.0000
  O2     O2        0.505606436820130    0.938857006605951    0.982952201163807  0.0000
  O2     O2        0.989492043499871    0.034025154677598    0.972600629133740  0.0000
  O3     O3        0.131115597898103    0.509123177411011    0.293218593964827  0.0000
  O2     O2        0.366481863581515    0.514973573484372    0.295180477821881  0.0000
  O2     O2        0.863852568198964    0.466588759823663    0.690017647390235  0.0000
  O2     O2        0.631265449667778    0.520141437868888    0.688842832558972  0.0000
  O3     O3        0.257561037236358    0.275000581378820    0.320223692747400  0.0000
  O2     O2        0.247429833311131    0.735084241904714    0.299117249538567  0.0000
  O2     O2        0.738500251363751    0.272926923051184    0.649807730296403  0.0000
  O2     O2        0.756038742281080    0.716425263327367    0.661593553486798  0.0000
  O3     O3        0.150762803992473    0.229411153745478    0.113160915301111  0.0000
  O2     O2        0.348625610497763    0.754387337745045    0.110606908873805  0.0000
  O3     O3        0.833652254453531    0.193575902301537    0.840729680114499  0.0000
  O3     O3        0.666934309086753    0.774776968354020    0.857990197310309  0.0000
  O3     O3        0.858370949050135    0.722160671768773    0.857603483753387  0.0000
  O2     O2        0.647088339835893    0.260776517927099    0.854347295188612  0.0000
  O2     O2        0.139898363458813    0.747874509411007    0.112700588480052  0.0000
  O2     O2        0.351738702890320    0.261323811002100    0.122369725522670  0.0000
  O3     O3        0.622664920413672    0.513904584885878    0.028106912263487  0.0000
  O1     O1        0.883720112690176    0.430748107549865    0.029132968032801  0.0000
  O2     O2        0.364966157494459    0.501150258508775    0.938240282795420  0.0000
  O2     O2        0.130487139224989    0.485996885919492    0.945707973895033  0.0000
  O3     O3        0.737179479063595    0.286655051847151    0.055191336907603  0.0000
  O1     O1        0.766457680650342    0.684236555769119    0.071636162396352  0.0000
  O2     O2        0.253050729923245    0.269103462168808    0.926932409652979  0.0000
  O2     O2        0.242314597878987    0.717050313957960    0.924568418132822  0.0000
