data_c01409.vasp
_audit_creation_method             Generated by GULP
_audit_author_name                 Salvador R. G. Balestra
_symmetry_space_group_name_H-M     'P 1             '
_symmetry_Int_Tables_number        1

loop_
_symmetry_equiv_pos_site_id
_symmetry_equiv_pos_as_xyz
_cell_length_a                       16.9713
_cell_length_b                        7.6232
_cell_length_c                       10.3163
_cell_angle_alpha                   90.3232
_cell_angle_beta                    90.3742
_cell_angle_gamma                   90.5072

loop_
_atom_site_label
_atom_site_type_symbol
_atom_site_fract_x
_atom_site_fract_y
_atom_site_fract_z
_atom_site_charge
  Ge     Ge        0.660660000000007    0.294089999999983    0.017439999999965  0.0000
  Ge     Ge        0.822751795141189    0.755865358643709    0.008326671576410  0.0000
  Ge     Ge        0.325501059986368    0.292889075625379    0.962230503831103  0.0000
  Ge     Ge        0.850090874598035    0.349586514166806    0.021640548476423  0.0000
  Si     Si        0.044208453468638    0.004805994208212    0.364277269349110  0.0000
  Si     Si        0.442991930166502    0.997766261621515    0.362039193669787  0.0000
  Si     Si        0.943638649394081    0.009426916872000    0.621681197810144  0.0000
  Si     Si        0.545654907188587    0.987778379799841    0.618487507204699  0.0000
  Si     Si        0.545243532941626    0.006427617725369    0.107039629366374  0.0000
  Si     Si        0.936061943586437    0.029402977486096    0.118751638766769  0.0000
  Si     Si        0.436557844068860    0.010166692290577    0.866854203470271  0.0000
  Si     Si        0.043341558749742    0.000808720398630    0.879037961303458  0.0000
  Si     Si        0.148908075317990    0.311680013871295    0.273259098451555  0.0000
  Si     Si        0.338076658953641    0.693507884480294    0.274507089841729  0.0000
  Si     Si        0.842090121806871    0.316683363910220    0.714951728493601  0.0000
  Si     Si        0.647920849171343    0.681723499239147    0.698942003421777  0.0000
  Si     Si        0.827268422823507    0.722635318414866    0.702132014473004  0.0000
  Si     Si        0.661259645788548    0.279592588359991    0.709066080350429  0.0000
  Si     Si        0.156503359972799    0.713214724372775    0.276850392464835  0.0000
  Si     Si        0.329803666734113    0.287683928772311    0.270192967438423  0.0000
  Si     Si        0.156244279829490    0.717137945668040    0.974956951048136  0.0000
  Si     Si        0.339716489848397    0.697829622139880    0.974007682922664  0.0000
  Si     Si        0.141091924906301    0.319159599635772    0.969238380257299  0.0000
  Si     Si        0.638453838567202    0.691052966330556    0.001744110773344  0.0000
  O2     O2        0.091050819756095    0.188583317891156    0.354670016167185  0.0000
  O2     O2        0.394675904336901    0.814147670773240    0.363198987761711  0.0000
  O2     O2        0.900699693860691    0.197357451773856    0.630098485115540  0.0000
  O2     O2        0.588340373806245    0.798845014769130    0.614375670060659  0.0000
  O2     O2        0.880025477099954    0.850487952907673    0.613031270999909  0.0000
  O2     O2        0.610962052504557    0.142372353921407    0.622731014618556  0.0000
  O2     O2        0.105523109891559    0.844294609549557    0.363800128178932  0.0000
  O2     O2        0.382957649642621    0.160640170866826    0.357469628718400  0.0000
  O2     O2        0.995901503336421    0.004795753585017    0.494795548006772  0.0000
  O2     O2        0.493328403242996    0.011836384470129    0.491899783554092  0.0000
  O2     O2        0.983096024507954    0.979114662306738    0.246841211268624  0.0000
  O2     O2        0.501868820951731    0.003584922259142    0.242709012720279  0.0000
  O2     O2        0.002233539959465    0.979201015363623    0.741386060824177  0.0000
  O2     O2        0.489212173936621    0.999347498296408    0.741201797004991  0.0000
  O3     O3        0.616940096114332    0.141665317597792    0.116005380972171  0.0000
  O3     O3        0.853587545569207    0.925812296333324    0.107079234773934  0.0000
  O3     O3        0.370844745163919    0.156850204263931    0.853756400022314  0.0000
  O2     O2        0.113650706082383    0.860632821154854    0.887262883979300  0.0000
  O2     O2        0.394359758456260    0.822929087193070    0.888911862810283  0.0000
  O2     O2        0.076863918447074    0.199230138663089    0.894467757782050  0.0000
  O2     O2        0.575561183281702    0.812190750633988    0.073653296136039  0.0000
  O3     O3        0.918527132638280    0.234208395071665    0.111907685759595  0.0000
  O2     O2        0.487928213546663    0.072728099663438    0.991861955724754  0.0000
  O2     O2        0.981845618100626    0.956315676000051    0.991855461201439  0.0000
  O2     O2        0.127518482220350    0.514018265267277    0.301483365129217  0.0000
  O2     O2        0.358871694538807    0.488888967179404    0.290751750292706  0.0000
  O2     O2        0.861193067617234    0.524538189451120    0.699043294393126  0.0000
  O2     O2        0.627289446670376    0.475203448634829    0.684851998894503  0.0000
  O2     O2        0.238768998059881    0.272820258355517    0.314282880147979  0.0000
  O2     O2        0.248236277748236    0.729401385211022    0.316172741740050  0.0000
  O2     O2        0.752848374462628    0.276450649879316    0.667185717131044  0.0000
  O2     O2        0.736962419747699    0.718064294743130    0.650626365489936  0.0000
  O2     O2        0.137808716803902    0.269645158211120    0.121188978420427  0.0000
  O2     O2        0.350712412068896    0.748555242852857    0.125353417810061  0.0000
  O3     O3        0.853247991968483    0.268670061440341    0.863955978989184  0.0000
  O2     O2        0.640353294190822    0.738534878669123    0.848736811771936  0.0000
  O3     O3        0.828248377184773    0.803024558070346    0.845367230278810  0.0000
  O3     O3        0.657069336388514    0.224133751712755    0.857669346924780  0.0000
  O2     O2        0.146461531626467    0.765124143129409    0.126389683400264  0.0000
  O3     O3        0.335949083269266    0.229395068753995    0.121652512644456  0.0000
  O3     O3        0.612242599031773    0.492641387593395    0.024050016461053  0.0000
  O1     O1        0.873701324017019    0.565892283260388    0.034190995778798  0.0000
  O3     O3        0.364315951180256    0.501110784981833    0.946763869088781  0.0000
  O2     O2        0.119362684262856    0.523733243566886    0.948321494043152  0.0000
  O1     O1        0.755028771545661    0.317919612749251    0.071404645935105  0.0000
  O3     O3        0.726308030641282    0.719703060954258    0.054307752695162  0.0000
  O3     O3        0.227498109653263    0.285875813046899    0.917649023596518  0.0000
  O2     O2        0.247786490409100    0.719727789485453    0.936481232218213  0.0000
