data_c01418.vasp
_audit_creation_method             Generated by GULP
_audit_author_name                 Salvador R. G. Balestra
_symmetry_space_group_name_H-M     'P 1             '
_symmetry_Int_Tables_number        1

loop_
_symmetry_equiv_pos_site_id
_symmetry_equiv_pos_as_xyz
_cell_length_a                       16.9554
_cell_length_b                        7.5900
_cell_length_c                       10.3279
_cell_angle_alpha                   90.8487
_cell_angle_beta                    90.0001
_cell_angle_gamma                   90.0001

loop_
_atom_site_label
_atom_site_type_symbol
_atom_site_fract_x
_atom_site_fract_y
_atom_site_fract_z
_atom_site_charge
  Ge     Ge        0.660660000000007    0.294089999999983    0.017439999999965  0.0000
  Ge     Ge        0.160660018110909    0.622018584870891    0.957601203953323  0.0000
  Ge     Ge        0.183364362125055    0.208779969390632    0.964460672036891  0.0000
  Ge     Ge        0.683364304901820    0.707328673419342    0.010580527568503  0.0000
  Si     Si        0.059544543321028    0.955298488042036    0.353422654948248  0.0000
  Si     Si        0.458656604491983    0.968431225729119    0.364447552923079  0.0000
  Si     Si        0.958656643241380    0.947677506801746    0.610593701961696  0.0000
  Si     Si        0.559544541109879    0.960810084034723    0.621618574865995  0.0000
  Si     Si        0.571082797090794    0.979721537261192    0.122533921121087  0.0000
  Si     Si        0.964001379929705    0.966679681434393    0.092684836901448  0.0000
  Si     Si        0.464001369480354    0.949429025031384    0.882356384685843  0.0000
  Si     Si        0.071082831676420    0.936387059982945    0.852507352562566  0.0000
  Si     Si        0.177024869993388    0.237575329823324    0.270567104364253  0.0000
  Si     Si        0.342681641715303    0.677297925595367    0.271594518880413  0.0000
  Si     Si        0.842681695144032    0.238810781742562    0.703446702216562  0.0000
  Si     Si        0.677024865750661    0.678533270959756    0.704474087356830  0.0000
  Si     Si        0.856935940573790    0.639863586649704    0.696460703692573  0.0000
  Si     Si        0.662154550892433    0.269232143938580    0.712396011063169  0.0000
  Si     Si        0.162154502237121    0.646876420687245    0.262645181929835  0.0000
  Si     Si        0.356935944268630    0.276245136222167    0.278580520380635  0.0000
  Si     Si        0.866936629471010    0.647986824945375    0.999660213957198  0.0000
  Si     Si        0.366936685594228    0.268121912286404    0.975381040312626  0.0000
  Si     Si        0.346661272588683    0.664533917681295    0.968311527638878  0.0000
  Si     Si        0.846661264212990    0.251574757680687    0.006729700560261  0.0000
  O2     O2        0.123752180783568    0.112895502637840    0.360317243117620  0.0000
  O2     O2        0.392122692804262    0.817744526405233    0.355035113504230  0.0000
  O2     O2        0.892122766062529    0.098364265857299    0.620006093828917  0.0000
  O2     O2        0.623752142501476    0.803213014472869    0.614723932910889  0.0000
  O2     O2        0.916889745673648    0.756703557112372    0.613328643737292  0.0000
  O2     O2        0.602582739754845    0.150909134243861    0.625965418680060  0.0000
  O2     O2        0.102582691947369    0.765199392953289    0.349075771276445  0.0000
  O2     O2        0.416889745648220    0.159405209346957    0.361712627608687  0.0000
  O2     O2        0.005646226112106    0.966479551910511    0.479022950685247  0.0000
  O2     O2        0.505646165979765    0.949629083790133    0.496018326829661  0.0000
  O2     O2        0.002988659798499    0.983195950494695    0.231859656851721  0.0000
  O2     O2        0.519972238181208    0.942504899951054    0.247974355080948  0.0000
  O2     O2        0.019972272804410    0.973603803480353    0.727066923960256  0.0000
  O2     O2        0.502988687622131    0.932912707533294    0.743181615479669  0.0000
  O3     O3        0.594408707473806    0.182631831349559    0.113170737727069  0.0000
  O2     O2        0.932677797002175    0.767579398635402    0.070285681953740  0.0000
  O2     O2        0.432677816905977    0.148529331373075    0.904755515043915  0.0000
  O3     O3        0.094408719611095    0.733476758956406    0.861870473548320  0.0000
  O2     O2        0.393187680533797    0.809130326129380    0.886959008092763  0.0000
  O3     O3        0.151209391980788    0.047774941488434    0.858534559191269  0.0000
  O3     O3        0.651209325567617    0.868333585623208    0.116506706034175  0.0000
  O2     O2        0.893187722085315    0.106978434658489    0.088082217128723  0.0000
  O2     O2        0.526743725915922    0.903190196188309    0.993510519155693  0.0000
  O2     O2        0.026743776855596    0.012918417848403    0.981530745652353  0.0000
  O2     O2        0.144159899291385    0.438087610272612    0.274407746607482  0.0000
  O2     O2        0.376352473001971    0.482494485823688    0.300735413809446  0.0000
  O2     O2        0.876352482535735    0.433614255553897    0.674305773499665  0.0000
  O2     O2        0.644159941277507    0.478020947854731    0.700633455128722  0.0000
  O2     O2        0.267227445151075    0.237065806674394    0.321795996423869  0.0000
  O2     O2        0.250997891960207    0.686820080604629    0.312058260383103  0.0000
  O2     O2        0.750997941318631    0.229288506384441    0.662982959982555  0.0000
  O2     O2        0.767227438388075    0.679042913371110    0.653245208813096  0.0000
  O3     O3        0.175801965545361    0.158585801328511    0.126398632917327  0.0000
  O2     O2        0.347898002490360    0.720789700430689    0.119853359905164  0.0000
  O2     O2        0.847898079025252    0.195319008284519    0.855187860348770  0.0000
  O3     O3        0.675801887097129    0.757522813165344    0.848642560561804  0.0000
  O2     O2        0.867959822905152    0.692100159889085    0.846938146344357  0.0000
  O3     O3        0.650896412178360    0.215602328218039    0.859965283364507  0.0000
  O3     O3        0.150896379460077    0.700506248469736    0.115075911635978  0.0000
  O2     O2        0.367959883193712    0.224008506512505    0.128103093707508  0.0000
  O1     O1        0.637543065138264    0.510019051915153    0.034985367726529  0.0000
  O2     O2        0.888428433004675    0.442981704956191    0.022616167938996  0.0000
  O2     O2        0.388428508879246    0.473127042711179    0.952425122184212  0.0000
  O1     O1        0.137543074295018    0.406089524622764    0.940055855334471  0.0000
  O3     O3        0.758493048548073    0.260955816214088    0.058824562805752  0.0000
  O3     O3        0.781305365735193    0.685989532529763    0.053891613155925  0.0000
  O3     O3        0.281305410679446    0.230119335304923    0.921149626383738  0.0000
  O3     O3        0.258493061744145    0.655152709314081    0.916216632382555  0.0000
