data_c01406.vasp
_audit_creation_method             Generated by GULP
_audit_author_name                 Salvador R. G. Balestra
_symmetry_space_group_name_H-M     'P 1             '
_symmetry_Int_Tables_number        1

loop_
_symmetry_equiv_pos_site_id
_symmetry_equiv_pos_as_xyz
_cell_length_a                       16.9480
_cell_length_b                        7.6150
_cell_length_c                       10.3255
_cell_angle_alpha                   90.4737
_cell_angle_beta                    89.7667
_cell_angle_gamma                   89.8671

loop_
_atom_site_label
_atom_site_type_symbol
_atom_site_fract_x
_atom_site_fract_y
_atom_site_fract_z
_atom_site_charge
  Ge     Ge        0.660660000000007    0.294089999999983    0.017439999999965  0.0000
  Ge     Ge        0.823093249689643    0.743957645286470    0.023896694345851  0.0000
  Ge     Ge        0.325248117357068    0.271296084369846    0.979402435933324  0.0000
  Ge     Ge        0.348417227552068    0.683715965427328    0.973284419439299  0.0000
  Si     Si        0.044439286241616    0.028047861423529    0.371876435081820  0.0000
  Si     Si        0.442827997335813    0.009212295853979    0.371133794927180  0.0000
  Si     Si        0.946830270138865    0.020642660464539    0.633410047511410  0.0000
  Si     Si        0.548083620932324    0.007647154230160    0.623594599138907  0.0000
  Si     Si        0.545107166519016    0.012507685117241    0.115029462724517  0.0000
  Si     Si        0.934147581176602    0.026052735218259    0.125798485530312  0.0000
  Si     Si        0.440849220791734    0.998953677535725    0.872001365685404  0.0000
  Si     Si        0.045798028259225    0.005920630783858    0.890394337697828  0.0000
  Si     Si        0.147924790030409    0.333741754667995    0.288130511891111  0.0000
  Si     Si        0.341007595751285    0.704386192303565    0.278542385785028  0.0000
  Si     Si        0.843196149525602    0.331427250454729    0.720123513719708  0.0000
  Si     Si        0.649301073021664    0.698956676899327    0.713542836949059  0.0000
  Si     Si        0.829752722442420    0.735690434841573    0.716948375642940  0.0000
  Si     Si        0.662898757507145    0.294742466826835    0.710721996549988  0.0000
  Si     Si        0.160081329058966    0.733446393652056    0.279412121126125  0.0000
  Si     Si        0.328149402810618    0.296663195614686    0.285825709967188  0.0000
  Si     Si        0.161763706914043    0.720636648072033    0.975853823272675  0.0000
  Si     Si        0.141425108230257    0.325032868353272    0.984342547063773  0.0000
  Si     Si        0.637900749693066    0.693987104421427    0.015827615294418  0.0000
  Si     Si        0.845576554853091    0.344056919003561    0.023084455706026  0.0000
  O2     O2        0.088352857267464    0.215637617817076    0.371127332321569  0.0000
  O2     O2        0.397640737983198    0.822681266519624    0.368723752971644  0.0000
  O2     O2        0.904502608091788    0.210734425857461    0.640653090853317  0.0000
  O2     O2        0.590486654461751    0.817743394609739    0.629577035164792  0.0000
  O2     O2        0.881609341870728    0.866487842313330    0.629908756329423  0.0000
  O2     O2        0.613091709740629    0.162217663755248    0.620568067738229  0.0000
  O2     O2        0.108839542053751    0.873284713447952    0.359655679493853  0.0000
  O2     O2        0.380787547516186    0.171037326107953    0.376295691519144  0.0000
  O2     O2        0.998024766943200    0.008185203209409    0.504527056394396  0.0000
  O2     O2        0.496523534426829    0.017081121288923    0.496366544121649  0.0000
  O2     O2        0.982269959429202    0.014221764548908    0.256666299977427  0.0000
  O2     O2        0.499586670398937    0.029466352699383    0.248693003039322  0.0000
  O2     O2        0.005277113020872    0.992903123496899    0.752375663850576  0.0000
  O2     O2        0.490113311582604    0.038200532835540    0.744393385331162  0.0000
  O3     O3        0.619395887307543    0.140230146232814    0.116504518315293  0.0000
  O3     O3        0.859411394788687    0.899266028521732    0.128953047987356  0.0000
  O3     O3        0.360481172171357    0.109159771467956    0.878383757691486  0.0000
  O2     O2        0.116584639021995    0.865095593211321    0.891758321405432  0.0000
  O3     O3        0.417038215588505    0.796587055858777    0.882620353918130  0.0000
  O2     O2        0.077334365397777    0.203649619689906    0.912895078531908  0.0000
  O2     O2        0.573966329559962    0.812421249726460    0.091892177186726  0.0000
  O2     O2        0.906188671821087    0.225924513677058    0.104092482790185  0.0000
  O2     O2        0.489073565582608    0.073025758869300    0.997064578804877  0.0000
  O2     O2        0.984787326601470    0.953515126064368    0.003303645898243  0.0000
  O2     O2        0.126832513607005    0.538801429727335    0.308727340054180  0.0000
  O2     O2        0.360391591622071    0.496819939738230    0.291556021472128  0.0000
  O2     O2        0.863053610620018    0.536997762517966    0.701330437088998  0.0000
  O2     O2        0.629911336682805    0.493038617976692    0.693302370168783  0.0000
  O2     O2        0.237255306925036    0.295928952600697    0.334116629759454  0.0000
  O2     O2        0.251098412002459    0.742923598272282    0.323214763864577  0.0000
  O2     O2        0.755023529611747    0.290530476720631    0.669580707231918  0.0000
  O2     O2        0.738869944822249    0.738818166267281    0.669808167300327  0.0000
  O2     O2        0.139388513295428    0.282210730027158    0.137397801361824  0.0000
  O3     O3        0.355352755769428    0.759188344401217    0.131490250694239  0.0000
  O2     O2        0.848674168006036    0.285598008493154    0.871665290016002  0.0000
  O2     O2        0.638067693644456    0.749188277052498    0.864245597446361  0.0000
  O3     O3        0.832223557378734    0.803138812912209    0.863838676506024  0.0000
  O3     O3        0.655770744165297    0.230385602018905    0.857190101364854  0.0000
  O2     O2        0.157377169255936    0.776104811296314    0.127198268562393  0.0000
  O3     O3        0.331810499820993    0.220300774207477    0.141557248298370  0.0000
  O3     O3        0.612940292579315    0.494148391005373    0.032650421851233  0.0000
  O3     O3        0.869845878581796    0.543921623440838    0.042454253819238  0.0000
  O1     O1        0.371323371915761    0.467898677581060    0.955740999820927  0.0000
  O2     O2        0.120837027483537    0.529526607575833    0.958641362533893  0.0000
  O3     O3        0.756346301370823    0.315923210305809    0.069309300637471  0.0000
  O3     O3        0.725420515994421    0.723262606898190    0.067809921742181  0.0000
  O3     O3        0.228003011711961    0.287623988099232    0.932486258449377  0.0000
  O3     O3        0.251059577902896    0.713586902909784    0.927918024738430  0.0000
