data_c01403.vasp
_audit_creation_method             Generated by GULP
_audit_author_name                 Salvador R. G. Balestra
_symmetry_space_group_name_H-M     'P 1             '
_symmetry_Int_Tables_number        1

loop_
_symmetry_equiv_pos_site_id
_symmetry_equiv_pos_as_xyz
_cell_length_a                       17.0655
_cell_length_b                        7.6556
_cell_length_c                       10.2692
_cell_angle_alpha                   90.6315
_cell_angle_beta                    90.3903
_cell_angle_gamma                   89.2945

loop_
_atom_site_label
_atom_site_type_symbol
_atom_site_fract_x
_atom_site_fract_y
_atom_site_fract_z
_atom_site_charge
  Ge     Ge        0.160189999999943    0.293909999999983    0.273440000000051  0.0000
  Ge     Ge        0.337810225289069    0.687134183801338    0.950578445527509  0.0000
  Ge     Ge        0.669909877883621    0.711949608389565    0.007064978669397  0.0000
  Ge     Ge        0.830935128601366    0.261616752993684    0.005490933591319  0.0000
  Si     Si        0.049766412859557    0.997475627105908    0.353691700787530  0.0000
  Si     Si        0.453001623729523    0.000560392644921    0.354122546059144  0.0000
  Si     Si        0.949996315454544    0.976050986218950    0.609731928828568  0.0000
  Si     Si        0.554322926713921    0.004485266075572    0.612506169313241  0.0000
  Si     Si        0.557220445847085    0.000486461534824    0.101738395990411  0.0000
  Si     Si        0.943896349970040    0.977064838305887    0.099467851121474  0.0000
  Si     Si        0.447068243050708    0.973839369786757    0.862194005487801  0.0000
  Si     Si        0.053956410111774    0.993226183382234    0.861223275994397  0.0000
  Si     Si        0.342817784026412    0.704726365911932    0.259389887975408  0.0000
  Si     Si        0.835762600993722    0.270239906207760    0.696257474582183  0.0000
  Si     Si        0.668340468925342    0.711788448980391    0.697541025152154  0.0000
  Si     Si        0.847733685919527    0.671949438127418    0.704511897808563  0.0000
  Si     Si        0.657109103114606    0.310809337385300    0.693896454788086  0.0000
  Si     Si        0.161908690993912    0.700982379646241    0.264276160626911  0.0000
  Si     Si        0.344699411426125    0.301099809662734    0.270948828092840  0.0000
  Si     Si        0.647787479079380    0.314954262918694    0.999585260673980  0.0000
  Si     Si        0.853834987711026    0.658436268076762    0.009270747076151  0.0000
  Si     Si        0.344395305428899    0.284199933590871    0.967389407431563  0.0000
  Si     Si        0.154210014023757    0.680913300159314    0.959068922607848  0.0000
  Si     Si        0.162262717830930    0.280405329872468    0.964773454697605  0.0000
  O3     O3        0.098296344323949    0.173791441061070    0.367476502882196  0.0000
  O2     O2        0.396471991598771    0.833891050026359    0.344608884178653  0.0000
  O2     O2        0.887971805464875    0.136745449372182    0.610363275824225  0.0000
  O2     O2        0.617627603704860    0.846079271806008    0.610997924990273  0.0000
  O2     O2        0.907079171956497    0.791423489499405    0.626106788627366  0.0000
  O2     O2        0.598303321073402    0.190175440614055    0.610994779487608  0.0000
  O2     O2        0.112429457519134    0.839275193190312    0.348253314568548  0.0000
  O2     O2        0.402945080907973    0.180511622501146    0.355505301435242  0.0000
  O2     O2        0.991179283522197    0.971181760499266    0.471259046713510  0.0000
  O2     O2        0.500317688056285    0.986916511331231    0.487128396582654  0.0000
  O2     O2        0.999378765024862    0.001378908307750    0.222025979030184  0.0000
  O2     O2        0.514773552507449    0.001332216707664    0.238473545752378  0.0000
  O2     O2        0.016431250393071    0.001844325243066    0.718895781443982  0.0000
  O2     O2        0.499560304526702    0.996263008383957    0.737261531257212  0.0000
  O2     O2        0.584228389113062    0.196244619401115    0.069813932621555  0.0000
  O2     O2        0.914897876905835    0.777407086514100    0.089619543124732  0.0000
  O2     O2        0.396157114691289    0.149217035539544    0.884938617036770  0.0000
  O2     O2        0.092642581150631    0.801781998388689    0.881288084261662  0.0000
  O3     O3        0.389202196133237    0.813535612567907    0.844891528535290  0.0000
  O2     O2        0.118061054314355    0.145434788067479    0.869891461582495  0.0000
  O3     O3        0.630863322031809    0.870565615735357    0.106976789730706  0.0000
  O3     O3        0.869953377107179    0.106034975543581    0.106631398427314  0.0000
  O2     O2        0.500838890476194    0.927403063860522    0.987365835555420  0.0000
  O2     O2        0.988253210862931    0.034187483678562    0.968555908135245  0.0000
  O3     O3        0.132525212778133    0.509406836649400    0.293199685906474  0.0000
  O2     O2        0.369825272435112    0.503873238959340    0.282069427806425  0.0000
  O2     O2        0.868271803981587    0.467142197618750    0.681559569083298  0.0000
  O2     O2        0.636193481493071    0.515369099219100    0.674321750907797  0.0000
  O3     O3        0.257247952982710    0.275225682541699    0.320305239103540  0.0000
  O2     O2        0.252725072980962    0.723589105333751    0.304789944332421  0.0000
  O2     O2        0.745556629836381    0.269264776275851    0.646874562359743  0.0000
  O2     O2        0.759526366009416    0.715091790495719    0.655958294072748  0.0000
  O3     O3        0.151529199527159    0.225621826635572    0.113217925521012  0.0000
  O3     O3        0.348893803084362    0.757214523843115    0.109819781822472  0.0000
  O3     O3        0.838579779435523    0.205045379238454    0.843345319613292  0.0000
  O3     O3        0.662029874753503    0.772652917909765    0.846376772466505  0.0000
  O2     O2        0.854803827498734    0.715332158516893    0.857595431450906  0.0000
  O2     O2        0.650264119214515    0.266204428828476    0.845863138296249  0.0000
  O2     O2        0.153109116810773    0.739110020546150    0.110421221238135  0.0000
  O2     O2        0.350979137494445    0.239570902203728    0.120271137544209  0.0000
  O3     O3        0.623150256520720    0.514199733908444    0.022540672279011  0.0000
  O3     O3        0.878088254772202    0.459030357865212    0.027120325589022  0.0000
  O3     O3        0.373332157474503    0.476173116004062    0.938505578966712  0.0000
  O2     O2        0.129184908342142    0.477883168031050    0.945098376496267  0.0000
  O3     O3        0.734766226259552    0.281382214142165    0.053384603696970  0.0000
  O3     O3        0.765632694702407    0.687480720771057    0.057195778969787  0.0000
  O2     O2        0.253396022704899    0.272737702443845    0.925629463505591  0.0000
  O3     O3        0.240621633486137    0.702394452472954    0.904603878277765  0.0000
