data_c01404.vasp
_audit_creation_method             Generated by GULP
_audit_author_name                 Salvador R. G. Balestra
_symmetry_space_group_name_H-M     'P 1             '
_symmetry_Int_Tables_number        1

loop_
_symmetry_equiv_pos_site_id
_symmetry_equiv_pos_as_xyz
_cell_length_a                       17.0119
_cell_length_b                        7.6519
_cell_length_c                       10.2891
_cell_angle_alpha                   90.2331
_cell_angle_beta                    90.4884
_cell_angle_gamma                   89.4959

loop_
_atom_site_label
_atom_site_type_symbol
_atom_site_fract_x
_atom_site_fract_y
_atom_site_fract_z
_atom_site_charge
  Ge     Ge        0.160189999999943    0.293909999999983    0.273440000000051  0.0000
  Ge     Ge        0.164059000276870    0.292250205962496    0.958570026325935  0.0000
  Ge     Ge        0.669782844328052    0.728902613236805    0.013882988429320  0.0000
  Ge     Ge        0.830750433789205    0.280371590778833    0.008042227237826  0.0000
  Si     Si        0.045641969331300    0.004067647308541    0.356924602082603  0.0000
  Si     Si        0.448697585738556    0.018272792231965    0.356949952772236  0.0000
  Si     Si        0.941117340245039    0.987010036394024    0.607378594472137  0.0000
  Si     Si        0.544416426216561    0.013556666611645    0.621849063769555  0.0000
  Si     Si        0.558399483362116    0.014398655564920    0.111601976903304  0.0000
  Si     Si        0.946285172564307    0.996117837364000    0.095816676198487  0.0000
  Si     Si        0.444393329038744    0.003544874629065    0.877209096101373  0.0000
  Si     Si        0.052749080510575    0.009495804548197    0.853489949236240  0.0000
  Si     Si        0.335010619977629    0.725556345027601    0.269274386597486  0.0000
  Si     Si        0.828259531606665    0.280713468685911    0.699586487996692  0.0000
  Si     Si        0.660445158443016    0.721838674385393    0.705763621876651  0.0000
  Si     Si        0.840001959750520    0.682414948141862    0.701083363624319  0.0000
  Si     Si        0.648703036689078    0.319721350830896    0.709187185139526  0.0000
  Si     Si        0.152765133189206    0.706065917017629    0.267910456025771  0.0000
  Si     Si        0.342177921285940    0.326992877567147    0.275627868138120  0.0000
  Si     Si        0.646593733085604    0.332100075571181    0.013621231053798  0.0000
  Si     Si        0.853956266529346    0.677123111075283    0.005402042602182  0.0000
  Si     Si        0.345774379675830    0.323275258760411    0.967444893638800  0.0000
  Si     Si        0.149683651931752    0.700149129836815    0.967150200004884  0.0000
  Si     Si        0.332602000791346    0.718808002481965    0.966559619719213  0.0000
  O3     O3        0.101066045825624    0.170284751334820    0.371377123638379  0.0000
  O2     O2        0.384721772211560    0.864095819460830    0.352105505374432  0.0000
  O2     O2        0.878712460839457    0.146761337567904    0.612394771434721  0.0000
  O2     O2        0.607279029816306    0.854505024611293    0.621212539323636  0.0000
  O2     O2        0.897463050628382    0.801528440116005    0.617304120377213  0.0000
  O2     O2        0.588111566753799    0.199530855632347    0.630139000528237  0.0000
  O2     O2        0.100170160395442    0.830654290684721    0.358236681084422  0.0000
  O2     O2        0.406068334992601    0.206000191961349    0.347797433623488  0.0000
  O2     O2        0.982524919924532    0.993297136864054    0.469582261159835  0.0000
  O2     O2        0.495620935234094    0.005643592222653    0.490113478341723  0.0000
  O2     O2        0.999284082032634    0.018788263661129    0.221565981568834  0.0000
  O2     O2        0.509905825872028    0.996311974423808    0.241517806659798  0.0000
  O2     O2        0.007061323385055    0.003010080537943    0.718092515206881  0.0000
  O2     O2        0.483092992992456    0.994310183198339    0.737563007907034  0.0000
  O2     O2        0.586625936455216    0.213478462172416    0.093846167972218  0.0000
  O2     O2        0.918129801434783    0.796371885237826    0.078559533188920  0.0000
  O2     O2        0.411381189853224    0.198777198394974    0.903525992433491  0.0000
  O2     O2        0.094826793707122    0.822617149853432    0.878311420007296  0.0000
  O2     O2        0.375002990677250    0.861531432997204    0.878658259722775  0.0000
  O3     O3        0.116508123181261    0.159760421507950    0.848770025838208  0.0000
  O3     O3        0.632702392189932    0.886445028183043    0.115792021019159  0.0000
  O3     O3        0.871490854632075    0.122582169637194    0.105439639995505  0.0000
  O2     O2        0.507363496240401    0.950047493881507    0.987455910379264  0.0000
  O2     O2        0.993763240342497    0.061316061842126    0.969924162161404  0.0000
  O3     O3        0.128645758168838    0.508445999230402    0.286166221727259  0.0000
  O2     O2        0.365627816366538    0.529344313954971    0.299269997379355  0.0000
  O2     O2        0.860363347117554    0.477605140975165    0.679541293119560  0.0000
  O2     O2        0.627818593499698    0.524468317047460    0.689535605235802  0.0000
  O3     O3        0.256562267531519    0.287383969322811    0.328886882768699  0.0000
  O2     O2        0.243670311563296    0.738344728522316    0.307828912192452  0.0000
  O2     O2        0.736359061530306    0.277588515054942    0.658053199937063  0.0000
  O2     O2        0.750563498913201    0.723593523822439    0.656867478567619  0.0000
  O1     O1        0.155173519513716    0.223095282940615    0.115617377363753  0.0000
  O2     O2        0.343808491856770    0.770994613350328    0.117396278165935  0.0000
  O3     O3        0.835391016434384    0.219128946439214    0.847082203813829  0.0000
  O3     O3        0.659461815594073    0.787372398408469    0.853186700918717  0.0000
  O2     O2        0.850883412025146    0.728769469794570    0.852721589567313  0.0000
  O2     O2        0.643833745368934    0.275105829808129    0.861582535025143  0.0000
  O2     O2        0.139889518804496    0.759782044867503    0.116999395234946  0.0000
  O2     O2        0.340055268306300    0.286796321243606    0.121457884076762  0.0000
  O3     O3        0.622510086020516    0.531598973137583    0.033376958627351  0.0000
  O3     O3        0.878811487623232    0.477882278712733    0.024737518299416  0.0000
  O2     O2        0.368994871276299    0.525497558986484    0.941766170251042  0.0000
  O3     O3        0.125451960377571    0.501873792755841    0.948436433391092  0.0000
  O3     O3        0.735696570051500    0.304545241828617    0.060516032353950  0.0000
  O3     O3        0.767022060613020    0.708054767289219    0.059116754215967  0.0000
  O3     O3        0.260789197747660    0.287902271009553    0.908508378995662  0.0000
  O2     O2        0.240943142744161    0.720374281126887    0.927641256222146  0.0000
