data_c01400.vasp
_audit_creation_method             Generated by GULP
_audit_author_name                 Salvador R. G. Balestra
_symmetry_space_group_name_H-M     'P 1             '
_symmetry_Int_Tables_number        1

loop_
_symmetry_equiv_pos_site_id
_symmetry_equiv_pos_as_xyz
_cell_length_a                       17.0124
_cell_length_b                        7.6328
_cell_length_c                       10.2810
_cell_angle_alpha                   90.9724
_cell_angle_beta                    90.7447
_cell_angle_gamma                   89.8214

loop_
_atom_site_label
_atom_site_type_symbol
_atom_site_fract_x
_atom_site_fract_y
_atom_site_fract_z
_atom_site_charge
  Ge     Ge        0.160189999999943    0.293909999999983    0.273440000000051  0.0000
  Ge     Ge        0.145790610690852    0.683363690007533    0.956972339554315  0.0000
  Ge     Ge        0.667554345633108    0.734996958288911    0.012301420329617  0.0000
  Ge     Ge        0.828290854073694    0.281369443740006    0.006552752224085  0.0000
  Si     Si        0.045303718715526    0.005799203397646    0.357179864420304  0.0000
  Si     Si        0.447768925955333    0.022795582233623    0.356639514184140  0.0000
  Si     Si        0.941552842065290    0.995973312288247    0.608069586114571  0.0000
  Si     Si        0.544512029964916    0.013327183858634    0.619852387065164  0.0000
  Si     Si        0.556308589026131    0.021293431802136    0.110982664381293  0.0000
  Si     Si        0.943396369422901    0.999239325977280    0.098868070946893  0.0000
  Si     Si        0.442700057353528    0.992432102384754    0.874118267765404  0.0000
  Si     Si        0.049166744032052    0.998787558286020    0.855658142405751  0.0000
  Si     Si        0.332127826714381    0.727494702659758    0.260593843292821  0.0000
  Si     Si        0.827158771799481    0.285643073638061    0.697997271979779  0.0000
  Si     Si        0.661379744683218    0.727459856393084    0.703587793951316  0.0000
  Si     Si        0.841180342325600    0.688888592150860    0.705147733060898  0.0000
  Si     Si        0.647874596468010    0.324563932222620    0.704222487403423  0.0000
  Si     Si        0.150554572442782    0.706090935082961    0.263547436456899  0.0000
  Si     Si        0.344062011204778    0.328096971095386    0.275501689063133  0.0000
  Si     Si        0.644714399641446    0.336936910461640    0.009343693113745  0.0000
  Si     Si        0.851669726869400    0.679308109074483    0.009399167286767  0.0000
  Si     Si        0.343545309614898    0.309334089055878    0.970978892654268  0.0000
  Si     Si        0.330061496350571    0.704870713143610    0.955435987127908  0.0000
  Si     Si        0.162319954209343    0.274144073319452    0.966266808503426  0.0000
  O3     O3        0.103338587655119    0.169379889378155    0.373156355090115  0.0000
  O2     O2        0.382835536909592    0.871255641343917    0.338505849932682  0.0000
  O2     O2        0.877342595333269    0.151894878735807    0.609238764356648  0.0000
  O2     O2        0.609911084826030    0.859595008724049    0.616905666917369  0.0000
  O2     O2        0.900529673586866    0.807609438882437    0.625135283845776  0.0000
  O2     O2        0.586453970796357    0.203046834872026    0.624849508823414  0.0000
  O2     O2        0.097319080752891    0.829198175513911    0.355398243076695  0.0000
  O2     O2        0.405766967915380    0.212382913483209    0.357154999372330  0.0000
  O2     O2        0.982269644386902    0.995059175741661    0.469632597976217  0.0000
  O2     O2        0.491894464081514    0.996459494097955    0.491712320506085  0.0000
  O2     O2        0.998625849286170    0.029980556029815    0.222216454293589  0.0000
  O2     O2        0.511780696594569    0.010488400169585    0.244976279486872  0.0000
  O2     O2        0.008194739646276    0.030270492843597    0.717247851058959  0.0000
  O2     O2        0.487349428050116    0.990015365476675    0.739897611437083  0.0000
  O2     O2        0.583093045669891    0.220120312296028    0.086700387054485  0.0000
  O2     O2        0.914814031345009    0.797659543335311    0.088877779850309  0.0000
  O2     O2        0.401317710014975    0.181061579336280    0.893063987179225  0.0000
  O3     O3        0.079463778353359    0.800420499416033    0.864797501348224  0.0000
  O2     O2        0.378929045645266    0.837610052752289    0.868974849738236  0.0000
  O2     O2        0.123492579625083    0.128720861328666    0.870685208490696  0.0000
  O3     O3        0.631048246660106    0.894757211073745    0.113901717638763  0.0000
  O3     O3        0.868801828609326    0.126009116965778    0.105334746194691  0.0000
  O2     O2        0.502419199776283    0.949681257651403    0.991525446796906  0.0000
  O2     O2        0.988713985527261    0.052726198270269    0.968729782124675  0.0000
  O3     O3        0.126741972059515    0.506908856566340    0.281537262812351  0.0000
  O2     O2        0.365234466846433    0.533813329368171    0.292032831424645  0.0000
  O2     O2        0.860302356098591    0.483045964210749    0.682262774112439  0.0000
  O2     O2        0.628128764929599    0.529748959605289    0.684760963223944  0.0000
  O3     O3        0.257227241153475    0.291726092709227    0.324498113124978  0.0000
  O2     O2        0.241790561412340    0.737970272281053    0.304882356936666  0.0000
  O2     O2        0.735585675502296    0.282628112818338    0.653697663583838  0.0000
  O2     O2        0.752212908481942    0.730551547291906    0.658868688624505  0.0000
  O3     O3        0.155125530050810    0.216880832786537    0.114918200956043  0.0000
  O2     O2        0.334340060423934    0.764357766772136    0.107006169057822  0.0000
  O3     O3        0.832928739242610    0.221245843575171    0.844743581014212  0.0000
  O3     O3        0.658437564961789    0.793343897914843    0.851755610226125  0.0000
  O2     O2        0.851397627215694    0.735137725813863    0.857634517059648  0.0000
  O2     O2        0.643085804293163    0.281334340235524    0.856423041995122  0.0000
  O3     O3        0.137539556282823    0.760214306210431    0.114780588489082  0.0000
  O2     O2        0.350915554520009    0.270615169407302    0.124008908495347  0.0000
  O3     O3        0.620525869071096    0.536667223219908    0.030251818280728  0.0000
  O3     O3        0.876500857896398    0.479904810496302    0.025502005950836  0.0000
  O2     O2        0.366674468823587    0.509277583932960    0.940691381918589  0.0000
  O3     O3        0.123098693795773    0.463311391506092    0.947620393510735  0.0000
  O3     O3        0.733124441460385    0.305253007648035    0.058335637802849  0.0000
  O3     O3        0.764279158475889    0.709961799850679    0.059628761437711  0.0000
  O2     O2        0.253677776421273    0.281026450464206    0.926420676249190  0.0000
  O3     O3        0.241098437975076    0.708901510284327    0.905739789847357  0.0000
