data_c00044.vasp
_audit_creation_method             Generated by GULP
_audit_author_name                 Salvador R. G. Balestra
_symmetry_space_group_name_H-M     'P 1             '
_symmetry_Int_Tables_number        1

loop_
_symmetry_equiv_pos_site_id
_symmetry_equiv_pos_as_xyz
_cell_length_a                       17.5486
_cell_length_b                        7.8699
_cell_length_c                       10.2809
_cell_angle_alpha                   90.3278
_cell_angle_beta                    90.8752
_cell_angle_gamma                   88.2320

loop_
_atom_site_label
_atom_site_type_symbol
_atom_site_fract_x
_atom_site_fract_y
_atom_site_fract_z
_atom_site_charge
  Ge     Ge        0.052090000000021    0.000000000000000    0.372269999999958  0.0000
  Ge     Ge        0.452347743815492    0.944291386404774    0.426152967518284  0.0000
  Ge     Ge        0.945470806655325    0.943816105801654    0.619920919885023  0.0000
  Ge     Ge        0.562076079360941    0.995855587267108    0.181844158227863  0.0000
  Ge     Ge        0.455620870224990    0.932073706282199    0.925314866991002  0.0000
  Ge     Ge        0.056708065316117    0.997574864330815    0.869996038229879  0.0000
  Ge     Ge        0.148580449882254    0.315209541645663    0.305442824038508  0.0000
  Ge     Ge        0.358884523224097    0.631260087267719    0.307709282342841  0.0000
  Ge     Ge        0.827258771601966    0.233613076939522    0.735971622482976  0.0000
  Ge     Ge        0.669940659741644    0.711118152762557    0.749170243437482  0.0000
  Ge     Ge        0.852813332696882    0.632945827745343    0.737858216395877  0.0000
  Ge     Ge        0.644780778169720    0.310297082683777    0.747333409300954  0.0000
  Ge     Ge        0.176912161616182    0.714547710030793    0.304046240477294  0.0000
  Ge     Ge        0.330372197455984    0.230260385671206    0.309812661350492  0.0000
  Ge     Ge        0.655115610404007    0.305091732631105    0.061772588842914  0.0000
  Ge     Ge        0.861964831841807    0.626888485924062    0.053076546932928  0.0000
  Ge     Ge        0.331095588418227    0.220926307453777    0.994948837463988  0.0000
  Ge     Ge        0.177667812946469    0.710228443710664    0.987632265955265  0.0000
  Ge     Ge        0.358379600933512    0.621067785168654    0.990808947519235  0.0000
  Ge     Ge        0.149699183422079    0.309015193094843    0.989939798375776  0.0000
  Ge     Ge        0.679985735491476    0.706640887541650    0.064279341027004  0.0000
  Ge     Ge        0.838024037906475    0.226771314624674    0.049969738767398  0.0000
  Si     Si        0.552829403429270    0.997599440154805    0.676801464466570  0.0000
  Si     Si        0.956722175756088    0.936143956660937    0.116566426125437  0.0000
  O1     O1        0.084131774530189    0.202364268781915    0.391734435222831  0.0000
  O1     O1        0.425847322922820    0.740188197387175    0.394743349390031  0.0000
  O1     O1        0.869819480018974    0.083516108884457    0.638980423102531  0.0000
  O3     O3        0.621379280104158    0.859949575128950    0.653777032470570  0.0000
  O1     O1        0.916818955669404    0.741545147561428    0.649125114982438  0.0000
  O3     O3        0.581642356182384    0.187682176582652    0.658197796068916  0.0000
  O1     O1        0.127354459239713    0.858413239419792    0.397743368225142  0.0000
  O1     O1        0.375626018751938    0.081027583975424    0.405664840324039  0.0000
  O1     O1        0.974578679247209    0.957726418783630    0.461148705060060  0.0000
  O3     O3        0.479950226283361    0.959102988017764    0.589252651500036  0.0000
  O3     O3        0.027748308173897    0.976119985892503    0.207518837503835  0.0000
  O1     O1        0.530183275220415    0.996890155975000    0.338730416945692  0.0000
  O1     O1        0.024052720361394    0.993618695920789    0.712152795842245  0.0000
  O3     O3        0.530622293706680    0.977339035997980    0.828410429186905  0.0000
  O1     O1        0.591512503197295    0.197733205907725    0.150981840089974  0.0000
  O3     O3        0.926147299704281    0.747821023740890    0.140444590235657  0.0000
  O1     O1        0.380572444480794    0.075680738980954    0.903442636711080  0.0000
  O1     O1        0.132519895250143    0.857039248641783    0.889304489944136  0.0000
  O1     O1        0.422802752983481    0.730328633321965    0.902619205548284  0.0000
  O1     O1        0.083620648713665    0.201655591741823    0.900886495222556  0.0000
  O1     O1        0.637663106125135    0.854000887416968    0.163907396100498  0.0000
  O3     O3        0.888515206429116    0.075463369849379    0.139029776442332  0.0000
  O1     O1        0.486587045994149    0.941590218410266    0.084833178983235  0.0000
  O3     O3        0.981439171016291    0.942229932869835    0.965981417054401  0.0000
  O1     O1        0.161161717256768    0.514492377330761    0.365757830388739  0.0000
  O1     O1        0.346273355460495    0.431915603646539    0.368953665231815  0.0000
  O1     O1        0.839758266409101    0.433816218969562    0.674290427309349  0.0000
  O1     O1        0.651602224181482    0.510955736828951    0.687186630911450  0.0000
  O1     O1        0.234050950628852    0.200567102458078    0.306264914638723  0.0000
  O1     O1        0.273268291415179    0.745304581110287    0.309370585572338  0.0000
  O1     O1        0.731496462892125    0.202642986735796    0.745650939446947  0.0000
  O1     O1        0.766078461906483    0.742112554439089    0.742319423408533  0.0000
  O1     O1        0.118297337814673    0.333355257078273    0.146255962804922  0.0000
  O1     O1        0.388593251941329    0.605512499706020    0.150657010215975  0.0000
  O1     O1        0.866025673190504    0.218765206090355    0.890445396105273  0.0000
  O1     O1        0.642020501601424    0.721563165405951    0.908914774947141  0.0000
  O1     O1        0.887914034400809    0.606236607455847    0.893281271126746  0.0000
  O1     O1        0.618237345408813    0.328051678042319    0.906686683177897  0.0000
  O1     O1        0.145855617985726    0.725917923867079    0.144486812881907  0.0000
  O1     O1        0.363872033446055    0.210625936579103    0.153803087054408  0.0000
  O1     O1        0.667925545825968    0.504940513816081    0.123644499503467  0.0000
  O1     O1        0.855520651726466    0.426308209363628    0.113973477914466  0.0000
  O1     O1        0.345812232286500    0.420972749613341    0.932451827294759  0.0000
  O1     O1        0.162607307441251    0.507664186270644    0.928578606516198  0.0000
  O1     O1        0.741860910320333    0.195835580268144    0.056839364042633  0.0000
  O1     O1        0.775894518599451    0.736766384187379    0.055283506687027  0.0000
  O1     O1        0.234679515786733    0.192063985315718    0.991916870376091  0.0000
  O1     O1        0.274034871480011    0.739397577654177    0.989863794587716  0.0000
