data_c00035.vasp
_audit_creation_method             Generated by GULP
_audit_author_name                 Salvador R. G. Balestra
_symmetry_space_group_name_H-M     'P 1             '
_symmetry_Int_Tables_number        1

loop_
_symmetry_equiv_pos_site_id
_symmetry_equiv_pos_as_xyz
_cell_length_a                       17.6248
_cell_length_b                        7.8561
_cell_length_c                       10.2740
_cell_angle_alpha                   90.1252
_cell_angle_beta                    90.4657
_cell_angle_gamma                   91.3873

loop_
_atom_site_label
_atom_site_type_symbol
_atom_site_fract_x
_atom_site_fract_y
_atom_site_fract_z
_atom_site_charge
  Ge     Ge        0.052090000000021    0.000000000000000    0.372269999999958  0.0000
  Ge     Ge        0.450783409204626    0.050543761854062    0.415256780842813  0.0000
  Ge     Ge        0.944631294492380    0.054827714835361    0.618983675529858  0.0000
  Ge     Ge        0.558043429945838    0.009617232927744    0.167359922049108  0.0000
  Ge     Ge        0.950528558855674    0.071600237495419    0.116582168960400  0.0000
  Ge     Ge        0.450554177513343    0.066041245158275    0.914893133754211  0.0000
  Ge     Ge        0.054213702596690    0.004369836957461    0.865936374124298  0.0000
  Ge     Ge        0.176206952958597    0.282781895527060    0.299394305024258  0.0000
  Ge     Ge        0.328525731744061    0.766830987056438    0.303940498786038  0.0000
  Ge     Ge        0.849063583880124    0.365680292448611    0.740036355282108  0.0000
  Ge     Ge        0.643925503606747    0.692261910947101    0.736276931371729  0.0000
  Ge     Ge        0.824517449681160    0.767564362211420    0.730646239956845  0.0000
  Ge     Ge        0.666986579543158    0.288592531616571    0.743148742299411  0.0000
  Ge     Ge        0.147878693187329    0.683421586568596    0.305126595227711  0.0000
  Ge     Ge        0.357300138965269    0.365241066362126    0.297853637322649  0.0000
  Ge     Ge        0.671858577235880    0.307384571760319    0.057621152068333  0.0000
  Ge     Ge        0.826655592500595    0.783363776031318    0.045645514260557  0.0000
  Ge     Ge        0.354470070265599    0.379219423546813    0.981774952836287  0.0000
  Ge     Ge        0.146560120523942    0.692747753254321    0.989122727274038  0.0000
  Ge     Ge        0.326899286771356    0.779582858085027    0.988584434216260  0.0000
  Ge     Ge        0.174828550015377    0.289984845040970    0.983647476962559  0.0000
  Ge     Ge        0.852741791453876    0.385502784104242    0.057642984789070  0.0000
  Si     Si        0.550532220565651    0.003164478097225    0.667465547164336  0.0000
  Si     Si        0.649380702364241    0.703022894315219    0.044552521947220  0.0000
  O1     O1        0.127398259715487    0.140888616174512    0.394770801570881  0.0000
  O1     O1        0.374050492073855    0.914648792972591    0.400508839558198  0.0000
  O1     O1        0.915014000140412    0.255538505127135    0.654975743012261  0.0000
  O3     O3        0.579341218352666    0.811715122251246    0.649665867530326  0.0000
  O1     O1        0.870676467321970    0.911567850615321    0.633769308382473  0.0000
  O3     O3        0.619139628501484    0.139798820395568    0.646975057404234  0.0000
  O1     O1        0.084053082044173    0.797205303970975    0.393930906620208  0.0000
  O1     O1        0.424610346373270    0.254687177594313    0.381352146683882  0.0000
  O1     O1        0.974002734564908    0.048687932853850    0.459155138041527  0.0000
  O3     O3        0.479392361027852    0.042168708439360    0.577668204097469  0.0000
  O1     O1        0.025545513891124    0.017700468429213    0.209584009987978  0.0000
  O1     O1        0.526716183161953    0.991471251495710    0.324498125345390  0.0000
  O1     O1        0.023993526760051    0.002297169284464    0.706426046238267  0.0000
  O3     O3        0.525992887344882    0.022061799522976    0.818220539527607  0.0000
  O1     O1        0.626477169798010    0.168640364630865    0.159951159714524  0.0000
  O1     O1        0.873065348755073    0.934454106524621    0.135659112969402  0.0000
  O1     O1        0.417490449639665    0.267800400560319    0.890873826248217  0.0000
  O1     O1        0.079527847421373    0.800215055182904    0.903773128783813  0.0000
  O1     O1        0.375879573317310    0.922765712177691    0.895274987158525  0.0000
  O1     O1        0.130190699273598    0.143249733656591    0.885044200134988  0.0000
  O3     O3        0.590401839581345    0.810528780592933    0.125219412081763  0.0000
  O1     O1        0.918164604215838    0.273623088583426    0.144254600552655  0.0000
  O1     O1        0.480872807944920    0.058361221454483    0.074513293728847  0.0000
  O1     O1        0.978348794386599    0.066040195741370    0.955940011086911  0.0000
  O1     O1        0.160853425717942    0.483430386893760    0.363009945428669  0.0000
  O1     O1        0.344309337078244    0.564516382917441    0.361476187353151  0.0000
  O1     O1        0.837320676559766    0.563933330462805    0.674167870672098  0.0000
  O1     O1        0.649880747659415    0.488704675402029    0.680095505407644  0.0000
  O1     O1        0.272126342538346    0.251239817024957    0.300258309075483  0.0000
  O1     O1        0.232602999151099    0.797932650989568    0.303715051038902  0.0000
  O1     O1        0.762828017085817    0.256251914151514    0.739365013313535  0.0000
  O1     O1        0.728877895813452    0.801714749664333    0.728302352246363  0.0000
  O1     O1        0.142748449840037    0.271127293607812    0.141092343939361  0.0000
  O1     O1        0.360268963845510    0.788673489783467    0.146652738789465  0.0000
  O1     O1        0.879439494080620    0.397338343687903    0.896823624044780  0.0000
  O3     O3        0.618449908640422    0.673460935842082    0.898445035970005  0.0000
  O1     O1        0.858349673764142    0.791164419209438    0.887456878587484  0.0000
  O1     O1        0.637250232961692    0.276912257430402    0.902243520923806  0.0000
  O1     O1        0.116789511733507    0.666437254368692    0.146432606380324  0.0000
  O1     O1        0.385916294656583    0.395189592658741    0.140584436484804  0.0000
  O3     O3        0.660742111694047    0.518041163315150    0.107077123549725  0.0000
  O1     O1        0.845143986297307    0.588156158990199    0.114206445543177  0.0000
  O1     O1        0.340677663901834    0.578773401600923    0.924133035146359  0.0000
  O1     O1        0.159136864545971    0.492994099274185    0.926634770784866  0.0000
  O1     O1        0.767269868230281    0.274136700316765    0.060186000191995  0.0000
  O3     O3        0.729272807350499    0.808202002842328    0.040710779156159  0.0000
  O1     O1        0.270695774235651    0.260897455100795    0.985343896789401  0.0000
  O1     O1        0.230832647519842    0.809876456164405    0.988010853323408  0.0000
