data_c00023.vasp
_audit_creation_method             Generated by GULP
_audit_author_name                 Salvador R. G. Balestra
_symmetry_space_group_name_H-M     'P 1             '
_symmetry_Int_Tables_number        1

loop_
_symmetry_equiv_pos_site_id
_symmetry_equiv_pos_as_xyz
_cell_length_a                       17.5979
_cell_length_b                        7.8573
_cell_length_c                       10.3570
_cell_angle_alpha                   89.6097
_cell_angle_beta                    90.4343
_cell_angle_gamma                   91.4474

loop_
_atom_site_label
_atom_site_type_symbol
_atom_site_fract_x
_atom_site_fract_y
_atom_site_fract_z
_atom_site_charge
  Ge     Ge        0.052090000000021    0.000000000000000    0.372269999999958  0.0000
  Ge     Ge        0.446768451085195    0.052519878477327    0.369816431258644  0.0000
  Ge     Ge        0.950717258570103    0.051610174538786    0.628149896257620  0.0000
  Ge     Ge        0.549568622712404    0.995024587472574    0.623495527603355  0.0000
  Ge     Ge        0.554842417457690    0.989647106267640    0.127667857840624  0.0000
  Ge     Ge        0.942873951468302    0.050196311737022    0.124529114127992  0.0000
  Ge     Ge        0.448171526985601    0.055716052073898    0.877863422652102  0.0000
  Ge     Ge        0.173158665562618    0.285665772310330    0.262621992153743  0.0000
  Ge     Ge        0.324365467946796    0.766996968413345    0.256681528966585  0.0000
  Ge     Ge        0.852612696199681    0.363809085917054    0.699302799575984  0.0000
  Ge     Ge        0.647087728611715    0.680891590966538    0.697244282953843  0.0000
  Ge     Ge        0.827387772716419    0.767098570016949    0.703023422727485  0.0000
  Ge     Ge        0.673373678750123    0.278349043381082    0.697147595061175  0.0000
  Ge     Ge        0.142969750958793    0.684345881499365    0.258273667628179  0.0000
  Ge     Ge        0.354287813813870    0.367166150134139    0.254023706990991  0.0000
  Ge     Ge        0.674178738550543    0.275518828693573    0.010982375875919  0.0000
  Ge     Ge        0.827063822305719    0.753654174019283    0.015060463771280  0.0000
  Ge     Ge        0.346237282069394    0.364762667704690    0.939004087908519  0.0000
  Ge     Ge        0.142797825319415    0.685273522423222    0.944918359201256  0.0000
  Ge     Ge        0.323943912427089    0.765595508312866    0.944032833695738  0.0000
  Ge     Ge        0.165157825334283    0.284255155461094    0.949141013367320  0.0000
  Ge     Ge        0.644792093634835    0.674872593846318    0.011661254566863  0.0000
  Si     Si        0.046830280810243    0.994464227319451    0.882368898649450  0.0000
  Si     Si        0.851745029766468    0.358969194485501    0.006270782697234  0.0000
  O1     O1        0.129858726367766    0.132802103559685    0.355819979002292  0.0000
  O1     O1        0.369539909566166    0.919547229502276    0.347319812834536  0.0000
  O1     O1        0.918618739152622    0.255603886348647    0.614019229679164  0.0000
  O1     O1        0.583190234513013    0.793256227145489    0.606633740314781  0.0000
  O1     O1        0.876202770436037    0.908433369032999    0.606764492820191  0.0000
  O1     O1        0.623042954513500    0.140825331474913    0.600440738812362  0.0000
  O1     O1        0.075989898472238    0.794354104109307    0.339954532235499  0.0000
  O1     O1        0.422931327904707    0.258467055848521    0.335845877281636  0.0000
  O1     O1        0.024897733854444    0.011788702192722    0.531520162040496  0.0000
  O1     O1        0.472474969371851    0.036624542167305    0.530455526321421  0.0000
  O1     O1        0.975698770314221    0.061353211178337    0.280571700228295  0.0000
  O1     O1        0.525687911049456    0.994987894787733    0.285491407649156  0.0000
  O3     O3        0.976731903005742    0.028925930631746    0.790059378827017  0.0000
  O1     O1        0.523524166445843    0.015402377609733    0.783642989789437  0.0000
  O1     O1        0.634028285367433    0.119243181721355    0.104652937667693  0.0000
  O1     O1        0.872961218824547    0.894886935408728    0.115516498317834  0.0000
  O1     O1        0.409945555481133    0.252995755059634    0.851771130826958  0.0000
  O3     O3        0.079645252431037    0.807647157922551    0.858108196908975  0.0000
  O1     O1        0.375553383939015    0.907467950343526    0.853665801016017  0.0000
  O3     O3        0.113691748489846    0.136094093670738    0.860498497897546  0.0000
  O1     O1        0.577824251608130    0.783332358174926    0.094041974044734  0.0000
  O3     O3        0.912306649298412    0.252032291677173    0.086221159182007  0.0000
  O1     O1        0.479272615126311    0.054797444579261    0.036480888148404  0.0000
  O3     O3        0.019979563342111    0.999994387339920    0.031084165404736  0.0000
  O1     O1        0.156567900905130    0.485656940093003    0.322719861134335  0.0000
  O1     O1        0.342790184476116    0.566506589005972    0.316448965432656  0.0000
  O1     O1        0.841153171332903    0.565103194608638    0.642721074201971  0.0000
  O1     O1        0.660404221040461    0.482437418019021    0.638195677477044  0.0000
  O1     O1        0.269091695987744    0.254454097393496    0.261075727469406  0.0000
  O1     O1        0.228270211872506    0.797215686192862    0.258805746805175  0.0000
  O1     O1        0.769116108442391    0.244490420450657    0.693372702144027  0.0000
  O1     O1        0.731374948680480    0.798620518258707    0.701398208570386  0.0000
  O1     O1        0.137536236663487    0.273714719322917    0.107627943000183  0.0000
  O1     O1        0.357086178694175    0.780341375157806    0.100790921128118  0.0000
  O3     O3        0.879732695386886    0.384654944588356    0.860126071582835  0.0000
  O1     O1        0.615912580095844    0.658573648587941    0.853441591168644  0.0000
  O1     O1        0.858902091739445    0.783390803293461    0.860590811158235  0.0000
  O1     O1        0.641895534067528    0.261168254184839    0.854279733060600  0.0000
  O1     O1        0.113675820158638    0.657355719988315    0.101395700810694  0.0000
  O1     O1        0.378809870555253    0.389568611664225    0.095132331536606  0.0000
  O1     O1        0.653049272630199    0.471850486807603    0.071636505607589  0.0000
  O3     O3        0.841515277209700    0.544769747988442    0.066498738481696  0.0000
  O1     O1        0.334505020776379    0.565263467246018    0.879573938104652  0.0000
  O1     O1        0.150883128531553    0.484921280153155    0.884092194901271  0.0000
  O3     O3        0.771848481321026    0.253833850185630    0.006818586596045  0.0000
  O1     O1        0.730956112930844    0.783169112428406    0.019174808981261  0.0000
  O1     O1        0.261005178380203    0.250837967250511    0.942677414410316  0.0000
  O1     O1        0.228087580455576    0.797890521780846    0.945764651498154  0.0000
