data_c00047.vasp
_audit_creation_method             Generated by GULP
_audit_author_name                 Salvador R. G. Balestra
_symmetry_space_group_name_H-M     'P 1             '
_symmetry_Int_Tables_number        1

loop_
_symmetry_equiv_pos_site_id
_symmetry_equiv_pos_as_xyz
_cell_length_a                       17.5826
_cell_length_b                        7.8639
_cell_length_c                       10.1912
_cell_angle_alpha                   90.2979
_cell_angle_beta                    90.8094
_cell_angle_gamma                   88.3126

loop_
_atom_site_label
_atom_site_type_symbol
_atom_site_fract_x
_atom_site_fract_y
_atom_site_fract_z
_atom_site_charge
  Ge     Ge        0.052090000000021    0.000000000000000    0.372269999999958  0.0000
  Ge     Ge        0.941480279697130    0.943582941677018    0.614063874826577  0.0000
  Ge     Ge        0.549160944703966    0.007217617550389    0.131057718932832  0.0000
  Ge     Ge        0.950044431394597    0.939431293248570    0.114724393924299  0.0000
  Ge     Ge        0.446336319283454    0.942421927629218    0.868981755052111  0.0000
  Ge     Ge        0.052491968585140    0.000219767753698    0.862140721332185  0.0000
  Ge     Ge        0.149910353320484    0.312031805033380    0.303886677176183  0.0000
  Ge     Ge        0.356227666414481    0.632832902626545    0.301867182207969  0.0000
  Ge     Ge        0.821131473637299    0.232123552629008    0.728778729315998  0.0000
  Ge     Ge        0.665239661238114    0.710538325905748    0.731552120302124  0.0000
  Ge     Ge        0.848334822835174    0.631412328048573    0.730513898366986  0.0000
  Ge     Ge        0.637896300914650    0.309111054110894    0.736263977658036  0.0000
  Ge     Ge        0.174318955307478    0.712445778360983    0.300290487927517  0.0000
  Ge     Ge        0.331750895692265    0.231152960363341    0.298687970166152  0.0000
  Ge     Ge        0.645238869611647    0.315082199731797    0.054092777221665  0.0000
  Ge     Ge        0.849923379632858    0.629634749879816    0.050335506003201  0.0000
  Ge     Ge        0.325870148122569    0.228229295547375    0.980211554116255  0.0000
  Ge     Ge        0.173681763569800    0.714089519800229    0.982065537172986  0.0000
  Ge     Ge        0.355396478882299    0.628992788804652    0.984394340719169  0.0000
  Ge     Ge        0.144342592055609    0.313154047942249    0.985154803578899  0.0000
  Ge     Ge        0.670121434832820    0.717070508328093    0.049680016984852  0.0000
  Ge     Ge        0.825263296929619    0.228600451280506    0.045846436421457  0.0000
  Si     Si        0.447261467228342    0.945090581414971    0.378639860173859  0.0000
  Si     Si        0.549225520046309    0.996555066065292    0.622477339884604  0.0000
  O1     O1        0.087601652443802    0.199130964933409    0.395270455052598  0.0000
  O3     O3        0.417822101810344    0.755734636371033    0.395104001244021  0.0000
  O1     O1        0.864916202944964    0.079711661174127    0.634104425756588  0.0000
  O3     O3        0.621404915394433    0.869582705757134    0.639283672997437  0.0000
  O1     O1        0.914333704836322    0.740215197187742    0.644851793071907  0.0000
  O3     O3        0.572152300898753    0.189173746245555    0.651416224615491  0.0000
  O1     O1        0.125018397919867    0.852502757621592    0.398088470088813  0.0000
  O3     O3        0.379342768689073    0.083706288410846    0.397831416162859  0.0000
  O1     O1        0.971121121001976    0.958592427762498    0.453721315402276  0.0000
  O2     O2        0.519748389074632    0.983299800862984    0.471122523264081  0.0000
  O1     O1        0.027649620414056    0.983914343795810    0.206970512622307  0.0000
  O3     O3        0.473698775563067    0.965475538797648    0.228265097116351  0.0000
  O1     O1        0.021679685006038    0.997104693038316    0.701388073914390  0.0000
  O3     O3        0.479278745086244    0.941994202266498    0.710137094123777  0.0000
  O1     O1        0.585197724365131    0.206381311235146    0.152168612708098  0.0000
  O1     O1        0.914890415469739    0.740113705898717    0.140491533549932  0.0000
  O1     O1        0.368032730154068    0.076754889767256    0.882984999816337  0.0000
  O1     O1        0.129781883539653    0.864201627809665    0.884688531661700  0.0000
  O1     O1        0.421495031013540    0.736782288761078    0.899648060390123  0.0000
  O1     O1        0.077004908859366    0.205503746306087    0.898888280849309  0.0000
  O1     O1        0.621550758966301    0.856800038845332    0.148068226924889  0.0000
  O1     O1        0.877020329681056    0.087272936128082    0.138846037108135  0.0000
  O1     O1        0.517999786836410    0.005968453757318    0.970096754650751  0.0000
  O1     O1        0.976599007668447    0.940016841988136    0.952171695863994  0.0000
  O1     O1        0.162196233706734    0.511795586053168    0.364038144066275  0.0000
  O1     O1        0.347367554042329    0.432212582977973    0.362082633084811  0.0000
  O1     O1        0.837368321419546    0.430925060117837    0.666810405759904  0.0000
  O1     O1        0.645561454821364    0.510250052956186    0.672731181390139  0.0000
  O1     O1        0.235812719238785    0.199453071954366    0.300375203820215  0.0000
  O1     O1        0.270298288757183    0.743729093274782    0.298849943377024  0.0000
  O1     O1        0.724844481433232    0.204338827492119    0.731855007154711  0.0000
  O1     O1        0.761432842182918    0.738826939447276    0.726845847226400  0.0000
  O1     O1        0.116393452482366    0.333338493998299    0.145372213618477  0.0000
  O1     O1        0.387453982738462    0.609637367986865    0.144209607522626  0.0000
  O1     O1        0.856743535676212    0.216052647343201    0.886390606926894  0.0000
  O1     O1        0.635040832166201    0.728786798610941    0.890805685051856  0.0000
  O1     O1        0.878495586211172    0.607812318641452    0.889972721596538  0.0000
  O1     O1        0.610125085457601    0.333593947812202    0.895646745748504  0.0000
  O1     O1        0.141102791430045    0.727188482371839    0.140516231252944  0.0000
  O1     O1        0.361412110670881    0.216832976634483    0.138794544304522  0.0000
  O1     O1        0.659513031126296    0.514914663681985    0.111905151364363  0.0000
  O1     O1        0.837797391647495    0.430656240366813    0.109803383843099  0.0000
  O1     O1        0.342428055541402    0.429338075493062    0.921658180892708  0.0000
  O1     O1        0.155881502143154    0.512691695472585    0.922875507241030  0.0000
  O1     O1        0.729401671112603    0.196220895313745    0.045642992488675  0.0000
  O1     O1        0.765873782466355    0.749732846462761    0.047181050539375  0.0000
  O1     O1        0.229702428731723    0.199857321839659    0.982483961761832  0.0000
  O1     O1        0.270051513209205    0.742034833870988    0.983877830744481  0.0000
