data_c00011.vasp
_audit_creation_method             Generated by GULP
_audit_author_name                 Salvador R. G. Balestra
_symmetry_space_group_name_H-M     'P 1             '
_symmetry_Int_Tables_number        1

loop_
_symmetry_equiv_pos_site_id
_symmetry_equiv_pos_as_xyz
_cell_length_a                       17.6379
_cell_length_b                        7.8681
_cell_length_c                       10.2757
_cell_angle_alpha                   89.4287
_cell_angle_beta                    90.5508
_cell_angle_gamma                   88.2584

loop_
_atom_site_label
_atom_site_type_symbol
_atom_site_fract_x
_atom_site_fract_y
_atom_site_fract_z
_atom_site_charge
  Ge     Ge        0.052090000000021    0.000000000000000    0.372269999999958  0.0000
  Ge     Ge        0.443545959473485    0.949632143995011    0.409413610968751  0.0000
  Ge     Ge        0.943955300275758    0.949225091223041    0.618407459882136  0.0000
  Ge     Ge        0.545026188476474    0.003733805233720    0.663926795965690  0.0000
  Ge     Ge        0.554747675853075    0.000569446886035    0.171286235207108  0.0000
  Ge     Ge        0.951126637425575    0.935335944034978    0.115952131506426  0.0000
  Ge     Ge        0.445646618845955    0.941944580854779    0.923101306617939  0.0000
  Ge     Ge        0.053769843936099    0.004165898981021    0.864348775857688  0.0000
  Ge     Ge        0.149859786559276    0.313743997957980    0.301202129708126  0.0000
  Ge     Ge        0.354023234708160    0.632754711339074    0.292128850958976  0.0000
  Ge     Ge        0.823122158850770    0.235673552240999    0.732295712342785  0.0000
  Ge     Ge        0.670047896813141    0.719327253530782    0.735061729503070  0.0000
  Ge     Ge        0.851045385943714    0.636099433279587    0.735832198073576  0.0000
  Ge     Ge        0.642151492558532    0.318456067070274    0.733187245704970  0.0000
  Ge     Ge        0.173155853073707    0.712793585984233    0.300647175859144  0.0000
  Ge     Ge        0.645509153170039    0.312411985118727    0.049037013126340  0.0000
  Ge     Ge        0.853466044850624    0.623918796612966    0.052987219792151  0.0000
  Ge     Ge        0.325827549733453    0.241230291182387    0.985276099272277  0.0000
  Ge     Ge        0.172031408881175    0.715394662444034    0.984924240957319  0.0000
  Ge     Ge        0.144456821963484    0.316000688758459    0.983824323150801  0.0000
  Ge     Ge        0.673829029364931    0.714376683540487    0.051761885898387  0.0000
  Ge     Ge        0.826067667905983    0.224658756716319    0.047505277281688  0.0000
  Si     Si        0.327788043721660    0.238054537461521    0.292874972995436  0.0000
  Si     Si        0.349805197585339    0.633893070380354    0.985585073148773  0.0000
  O1     O1        0.089436441603437    0.197094826822040    0.392906072775597  0.0000
  O1     O1        0.418839024456199    0.743976013271603    0.378366943410659  0.0000
  O1     O1        0.868674121404219    0.088289497179724    0.637507873624642  0.0000
  O1     O1        0.620026139466718    0.862249906053694    0.639431297171120  0.0000
  O1     O1        0.917270738143272    0.745641706417624    0.650763316061112  0.0000
  O1     O1        0.577162258558758    0.206484385004315    0.646146410699700  0.0000
  O1     O1        0.124635010717198    0.852030545812063    0.397713297768782  0.0000
  O3     O3        0.369652653505512    0.093956263488874    0.379779813132586  0.0000
  O1     O1        0.972589390848755    0.962892849723866    0.458375513243485  0.0000
  O1     O1        0.466890717132107    0.965135518183036    0.571918955120654  0.0000
  O1     O1        0.026691732000073    0.983635922681984    0.209461827578595  0.0000
  O1     O1        0.525491662111791    0.996459217222938    0.330345267072718  0.0000
  O1     O1        0.023687702527271    0.001053667814872    0.705127517292781  0.0000
  O1     O1        0.520579088394522    0.971917990006399    0.825184409707446  0.0000
  O1     O1        0.580609821760762    0.204637056050797    0.136987835703586  0.0000
  O1     O1        0.918460510364302    0.733429435965784    0.141185163134184  0.0000
  O1     O1        0.377572795788004    0.101242255166317    0.895423858139192  0.0000
  O1     O1        0.132365222703517    0.872040454193988    0.888818370778500  0.0000
  O3     O3        0.405427632964221    0.744570364310370    0.899296614177810  0.0000
  O1     O1        0.077423608678754    0.209221633875290    0.899578409254124  0.0000
  O1     O1        0.630133353996623    0.861182078994742    0.149085601628432  0.0000
  O1     O1        0.876411111738703    0.078253151973116    0.138501482976161  0.0000
  O1     O1        0.477111632668872    0.944791060239285    0.081609471197150  0.0000
  O1     O1        0.978964730461278    0.940023434333616    0.955140747138223  0.0000
  O1     O1        0.157698688788498    0.511817812500962    0.362255874382019  0.0000
  O3     O3        0.344213513519231    0.425512401608765    0.347824961056027  0.0000
  O1     O1        0.838122107268928    0.437609692430647    0.672888418355861  0.0000
  O1     O1        0.654305158382612    0.518729299646357    0.674324029298027  0.0000
  O3     O3        0.238105289979085    0.209380488308172    0.293482197460891  0.0000
  O1     O1        0.268878957270733    0.742239359449588    0.304219637496644  0.0000
  O1     O1        0.727423874664995    0.204482354837160    0.733241097144906  0.0000
  O1     O1        0.765945063758806    0.750481776281623    0.732240363491345  0.0000
  O1     O1        0.117349711846352    0.329861535266857    0.143374448346090  0.0000
  O3     O3        0.382675342075348    0.617607375115147    0.132416643255310  0.0000
  O1     O1        0.857444805504288    0.215356227255342    0.889090917006284  0.0000
  O1     O1        0.640342251971981    0.730798734475683    0.894399301357638  0.0000
  O1     O1        0.881378610632922    0.606445932285117    0.893333741342800  0.0000
  O1     O1        0.612829777652887    0.333734901740754    0.891857103797125  0.0000
  O1     O1        0.140029015040571    0.729785154800952    0.142163886984911  0.0000
  O3     O3        0.357321238968121    0.223209858312976    0.145580698160728  0.0000
  O1     O1        0.659072707572836    0.511035319532311    0.109762154648797  0.0000
  O1     O1        0.841549028616805    0.423607697252939    0.111756868340139  0.0000
  O3     O3        0.339560618172079    0.447779264562812    0.928361274701210  0.0000
  O1     O1        0.151419943875596    0.519187732266649    0.923917165721986  0.0000
  O1     O1        0.730247969389966    0.196024727419652    0.048730181463617  0.0000
  O1     O1        0.769671714045810    0.742857818414824    0.051708401219202  0.0000
  O1     O1        0.230917967234198    0.207827660656266    0.974428306033811  0.0000
  O3     O3        0.269217022025817    0.735445685503100    0.993637459472507  0.0000
