data_c00026.vasp
_audit_creation_method             Generated by GULP
_audit_author_name                 Salvador R. G. Balestra
_symmetry_space_group_name_H-M     'P 1             '
_symmetry_Int_Tables_number        1

loop_
_symmetry_equiv_pos_site_id
_symmetry_equiv_pos_as_xyz
_cell_length_a                       17.5698
_cell_length_b                        7.8781
_cell_length_c                       10.3607
_cell_angle_alpha                   89.6752
_cell_angle_beta                    90.0548
_cell_angle_gamma                   91.9514

loop_
_atom_site_label
_atom_site_type_symbol
_atom_site_fract_x
_atom_site_fract_y
_atom_site_fract_z
_atom_site_charge
  Ge     Ge        0.052090000000021    0.000000000000000    0.372269999999958  0.0000
  Ge     Ge        0.446369580036576    0.056833722303001    0.329913690397805  0.0000
  Ge     Ge        0.949487930865348    0.055095764246777    0.626521448094178  0.0000
  Ge     Ge        0.547326257778433    0.994621896880362    0.584163053392926  0.0000
  Ge     Ge        0.545323610933215    0.990139802254032    0.073211426332881  0.0000
  Ge     Ge        0.945369868787561    0.056337314229839    0.122602925083871  0.0000
  Ge     Ge        0.437191000956076    0.049921759851186    0.825837777263980  0.0000
  Ge     Ge        0.170999278998728    0.289990475444001    0.256539526543872  0.0000
  Ge     Ge        0.323427005752779    0.771924656541004    0.251124844553273  0.0000
  Ge     Ge        0.851654594509453    0.369193601038819    0.693704188299540  0.0000
  Ge     Ge        0.642574119722524    0.684170427496713    0.696778569827493  0.0000
  Ge     Ge        0.824216608546558    0.768193857361164    0.695229950705375  0.0000
  Ge     Ge        0.670294161128782    0.284722081117818    0.696872362572919  0.0000
  Ge     Ge        0.142455961521744    0.688468432885716    0.255525102639092  0.0000
  Ge     Ge        0.353202169233453    0.371213620628007    0.253016338800490  0.0000
  Ge     Ge        0.671053246429406    0.279830337828960    0.010648167787201  0.0000
  Ge     Ge        0.824375091216500    0.767632816698732    0.009440890672459  0.0000
  Ge     Ge        0.348014552736632    0.366749722170193    0.943277419720024  0.0000
  Ge     Ge        0.143130741936322    0.689784394464937    0.942487492713527  0.0000
  Ge     Ge        0.163430855748825    0.292907175561637    0.945399236907966  0.0000
  Ge     Ge        0.643597638153856    0.678068023231688    0.011630312650054  0.0000
  Ge     Ge        0.852277502865646    0.367417300524753    0.008024962593164  0.0000
  Si     Si        0.047931940647626    0.998303570987413    0.877828062798887  0.0000
  Si     Si        0.323022172181830    0.761732099309244    0.945205670989485  0.0000
  O1     O1        0.128991434240534    0.136287542724426    0.351124059191828  0.0000
  O1     O1        0.370774626362892    0.913227095811081    0.347921683916444  0.0000
  O1     O1        0.916822635166327    0.256638493281351    0.608857312162889  0.0000
  O1     O1        0.574930700736344    0.791436420696696    0.613196540691270  0.0000
  O1     O1        0.874445574936217    0.912923226585418    0.602765623057847  0.0000
  O1     O1        0.622623270461672    0.134180461433797    0.607689431823309  0.0000
  O1     O1        0.076429399012190    0.795125509567691    0.341555464080454  0.0000
  O1     O1        0.414880429498794    0.259361658887561    0.347047215365962  0.0000
  O1     O1        0.024882141545500    0.015488266456519    0.531129868352882  0.0000
  O1     O1        0.522226520308518    0.012628243764581    0.423359483289331  0.0000
  O1     O1        0.975556446984226    0.054206859817626    0.279789845125721  0.0000
  O1     O1        0.470953252533187    0.032595635544390    0.169348373174176  0.0000
  O3     O3        0.976781470553241    0.030495349393272    0.787707967078777  0.0000
  O1     O1        0.466176959371860    0.040263034405366    0.667731249564480  0.0000
  O1     O1        0.620679906879746    0.132847695971128    0.099261524522996  0.0000
  O1     O1        0.869309257956387    0.916689053628816    0.104137904892731  0.0000
  O1     O1        0.407575932598242    0.253584097516694    0.849149286574624  0.0000
  O3     O3        0.083813670414798    0.815449203651701    0.853100575791823  0.0000
  O3     O3        0.363254670967573    0.904014626297309    0.855849673762654  0.0000
  O3     O3        0.113974128661480    0.142637769139444    0.855405045845641  0.0000
  O1     O1        0.578309809795818    0.788915766792979    0.096435996635000  0.0000
  O1     O1        0.919653983660717    0.260542342409877    0.091287506512838  0.0000
  O1     O1        0.516238741782084    0.006233144475367    0.914409475937403  0.0000
  O3     O3        0.020938808613409    0.999406077724682    0.026846906977776  0.0000
  O1     O1        0.155651044361244    0.489575556388993    0.317498352653763  0.0000
  O1     O1        0.341571436820831    0.570747848023710    0.309102551171563  0.0000
  O1     O1        0.839377400748871    0.568255486546953    0.633625531438019  0.0000
  O1     O1        0.654683094736026    0.484938343241612    0.635686989884314  0.0000
  O1     O1        0.266754548581890    0.260653557270612    0.248740234728904  0.0000
  O1     O1        0.227873412122093    0.803301526369089    0.256998563108246  0.0000
  O1     O1        0.766430329839081    0.253630793924181    0.694145141128474  0.0000
  O1     O1        0.728063933907799    0.798877163816796    0.691462048895163  0.0000
  O1     O1        0.133383266254059    0.280109647472941    0.103099321224155  0.0000
  O3     O3        0.354509810175136    0.777584007360625    0.091105196112478  0.0000
  O1     O1        0.881368056309729    0.390307375480302    0.850922791847183  0.0000
  O1     O1        0.613907339412808    0.659179285757334    0.853798335488739  0.0000
  O1     O1        0.855472873169234    0.781376171351790    0.852561426029990  0.0000
  O1     O1        0.638971075118877    0.271968875131156    0.853493739078850  0.0000
  O1     O1        0.112142631539035    0.667721902444910    0.098671947229507  0.0000
  O1     O1        0.385325457819377    0.374777342930583    0.095859911610713  0.0000
  O1     O1        0.655964238286228    0.479719003997558    0.072750349118784  0.0000
  O1     O1        0.840297874440531    0.566372644187677    0.068870806961611  0.0000
  O3     O3        0.338726117870723    0.574778943305813    0.890177947430770  0.0000
  O1     O1        0.146078476091322    0.490340769520644    0.880067619831835  0.0000
  O1     O1        0.767259483076591    0.250738027333729    0.012625326459181  0.0000
  O1     O1        0.728110308350460    0.795878286654129    0.010289152851323  0.0000
  O1     O1        0.259640498946311    0.266106951889535    0.942217686434057  0.0000
  O3     O3        0.232865401063170    0.787834427902816    0.948135789577019  0.0000
