data_c00033.vasp
_audit_creation_method             Generated by GULP
_audit_author_name                 Salvador R. G. Balestra
_symmetry_space_group_name_H-M     'P 1             '
_symmetry_Int_Tables_number        1

loop_
_symmetry_equiv_pos_site_id
_symmetry_equiv_pos_as_xyz
_cell_length_a                       17.5775
_cell_length_b                        7.8697
_cell_length_c                       10.3291
_cell_angle_alpha                   89.9486
_cell_angle_beta                    89.8507
_cell_angle_gamma                   88.3169

loop_
_atom_site_label
_atom_site_type_symbol
_atom_site_fract_x
_atom_site_fract_y
_atom_site_fract_z
_atom_site_charge
  Ge     Ge        0.052090000000021    0.000000000000000    0.372269999999958  0.0000
  Ge     Ge        0.451869326672209    0.943922962439714    0.389739905720734  0.0000
  Ge     Ge        0.950263845920873    0.943106094822084    0.627314871536985  0.0000
  Ge     Ge        0.556302028366381    0.002334249875424    0.643602662536556  0.0000
  Ge     Ge        0.554900896246619    0.000227533119283    0.132182871784953  0.0000
  Ge     Ge        0.061032929494978    0.002082725593083    0.871606622386890  0.0000
  Ge     Ge        0.149874303497185    0.313867259004613    0.302054868256245  0.0000
  Ge     Ge        0.356847913180167    0.630700178765487    0.313079735831738  0.0000
  Ge     Ge        0.829930595578136    0.230917997486718    0.742193356052034  0.0000
  Ge     Ge        0.678439298234159    0.713958388098833    0.750612721210687  0.0000
  Ge     Ge        0.859848479704476    0.628833848423484    0.744100302504024  0.0000
  Ge     Ge        0.648815542868181    0.315686021884340    0.753820001419071  0.0000
  Ge     Ge        0.176300189372137    0.714764989885917    0.301207903970989  0.0000
  Ge     Ge        0.330501854414580    0.230267798474560    0.308793376309876  0.0000
  Ge     Ge        0.657149420912507    0.310001627275051    0.069403863194585  0.0000
  Ge     Ge        0.861485566538281    0.631166779723383    0.058778564965583  0.0000
  Ge     Ge        0.337136143242078    0.233084072297522    0.994290804346523  0.0000
  Ge     Ge        0.180868678691130    0.713966661137603    0.986870334692690  0.0000
  Ge     Ge        0.363554003537411    0.634668114043605    0.999172505262835  0.0000
  Ge     Ge        0.154270593503118    0.313530519160799    0.987296935136663  0.0000
  Ge     Ge        0.679600059601223    0.709649538905033    0.064553748677334  0.0000
  Ge     Ge        0.838987836579119    0.230766309781711    0.056116580244226  0.0000
  Si     Si        0.958124154625392    0.939528148999330    0.118013777554182  0.0000
  Si     Si        0.453120075633468    0.944475841894959    0.886043270521493  0.0000
  O1     O1        0.084556295316620    0.202143783894177    0.388806281753265  0.0000
  O1     O1        0.418560824130243    0.742341990363494    0.406827591373877  0.0000
  O1     O1        0.873052804448912    0.077108387982144    0.649496983628282  0.0000
  O1     O1        0.633669163767829    0.868138494581689    0.660249072271113  0.0000
  O1     O1        0.926257120237441    0.737482108445945    0.658425584107396  0.0000
  O1     O1        0.580581534888641    0.207844047219763    0.672266248188794  0.0000
  O1     O1        0.126322999313355    0.856164144533611    0.396087798769027  0.0000
  O1     O1        0.377733602235101    0.089715175860958    0.407954034632046  0.0000
  O1     O1        0.976054817591839    0.960163393767170    0.466804168868935  0.0000
  O1     O1        0.527201194641052    0.985943649001516    0.485271801586154  0.0000
  O3     O3        0.028167769364273    0.975523121450939    0.209358028221166  0.0000
  O1     O1        0.480154612438519    0.962702058168373    0.229459708956989  0.0000
  O1     O1        0.028416811143647    0.998233784885739    0.715430455299887  0.0000
  O3     O3        0.479318984037552    0.944522652095345    0.737040709328936  0.0000
  O1     O1        0.593348143083247    0.196600802037777    0.156569823738284  0.0000
  O3     O3        0.925650912768118    0.752592617284104    0.142457737650239  0.0000
  O3     O3        0.381887779918810    0.075009726468156    0.904354375928298  0.0000
  O1     O1        0.137278986182747    0.863529690910975    0.890291525881318  0.0000
  O3     O3        0.431040061977139    0.752834828796118    0.921130315221119  0.0000
  O1     O1        0.088898528680096    0.205533809507641    0.900199379528469  0.0000
  O1     O1        0.627791382192792    0.852218225807124    0.154989157038594  0.0000
  O3     O3        0.890893965537573    0.080395314719887    0.142361386077928  0.0000
  O3     O3        0.524229315090496    0.001134766544059    0.971802374975803  0.0000
  O3     O3        0.985228559451512    0.946698258926529    0.968626411471149  0.0000
  O1     O1        0.161923141319593    0.512767216519415    0.361712779195274  0.0000
  O1     O1        0.342851675283983    0.431753779022023    0.371309312962646  0.0000
  O1     O1        0.846470938905696    0.430697127970353    0.680734122135783  0.0000
  O1     O1        0.660214917546796    0.514664313478189    0.690343628151048  0.0000
  O1     O1        0.234784578279720    0.197038449726737    0.303390170667775  0.0000
  O1     O1        0.272224987155744    0.747424534569756    0.305272756286800  0.0000
  O1     O1        0.733928214561467    0.201224543377233    0.746174913995374  0.0000
  O1     O1        0.774722812521032    0.742752375191207    0.745884000151410  0.0000
  O1     O1        0.121783383940932    0.332964246017490    0.143479838719778  0.0000
  O1     O1        0.391053590838999    0.610877057473696    0.157271417888537  0.0000
  O1     O1        0.866346363817566    0.220887578013205    0.896518758459607  0.0000
  O1     O1        0.647030551347003    0.725337850621392    0.907888124465222  0.0000
  O1     O1        0.889968647946024    0.604182798402868    0.901017836103576  0.0000
  O1     O1        0.624674949274084    0.337591835807006    0.913555194724844  0.0000
  O1     O1        0.146764618199658    0.727827942391649    0.142524689366074  0.0000
  O1     O1        0.365873220440412    0.219778871472935    0.152815837082335  0.0000
  O1     O1        0.668692599517054    0.509422789112274    0.129591649900870  0.0000
  O1     O1        0.854350450059672    0.430193353777553    0.120288568512360  0.0000
  O1     O1        0.356808702355373    0.433170852287190    0.936215532182279  0.0000
  O1     O1        0.165472052501416    0.513801616832271    0.926323905927934  0.0000
  O1     O1        0.743126386199445    0.197844044009391    0.064999617190368  0.0000
  O1     O1        0.775661346944557    0.742060595715199    0.062402160378155  0.0000
  O1     O1        0.240894897562932    0.205126876492981    0.986986388140048  0.0000
  O1     O1        0.277371186934313    0.741621325821754    0.990563546607552  0.0000
