data_c00002.vasp
_audit_creation_method             Generated by GULP
_audit_author_name                 Salvador R. G. Balestra
_symmetry_space_group_name_H-M     'P 1             '
_symmetry_Int_Tables_number        1

loop_
_symmetry_equiv_pos_site_id
_symmetry_equiv_pos_as_xyz
_cell_length_a                       17.6409
_cell_length_b                        7.8652
_cell_length_c                       10.3359
_cell_angle_alpha                   90.0930
_cell_angle_beta                    90.2255
_cell_angle_gamma                   91.7168

loop_
_atom_site_label
_atom_site_type_symbol
_atom_site_fract_x
_atom_site_fract_y
_atom_site_fract_z
_atom_site_charge
  Ge     Ge        0.052090000000021    0.000000000000000    0.372269999999958  0.0000
  Ge     Ge        0.449991227963089    0.051073255291343    0.413596288643309  0.0000
  Ge     Ge        0.952761081568263    0.053649617649391    0.628783745236063  0.0000
  Ge     Ge        0.554096441789876    0.992084071365662    0.664753222673464  0.0000
  Ge     Ge        0.558051839998499    0.993957430391400    0.169370732739667  0.0000
  Ge     Ge        0.949952550380013    0.058211329246975    0.114858155383001  0.0000
  Ge     Ge        0.452475808617730    0.055133981582416    0.919046962523049  0.0000
  Ge     Ge        0.060269279487127    0.999652099955578    0.872310980671645  0.0000
  Ge     Ge        0.177085264811723    0.282336772385602    0.299538865238028  0.0000
  Ge     Ge        0.328747186441132    0.763137802108914    0.298977066628158  0.0000
  Ge     Ge        0.857177503091514    0.361894440480032    0.744540435159530  0.0000
  Ge     Ge        0.650900289159437    0.678653442897557    0.736054898614130  0.0000
  Ge     Ge        0.831097680604189    0.763930102647786    0.741523689331443  0.0000
  Ge     Ge        0.677718548668951    0.277186595596013    0.737809770029134  0.0000
  Ge     Ge        0.146855459514152    0.683165832464402    0.301058134893795  0.0000
  Ge     Ge        0.357397067247852    0.362812318146577    0.297419713302000  0.0000
  Ge     Ge        0.676596350824286    0.280986546650266    0.052222940614282  0.0000
  Ge     Ge        0.830472117419550    0.759208260723767    0.054378451444146  0.0000
  Ge     Ge        0.352725225869486    0.366123846199308    0.981429673531948  0.0000
  Ge     Ge        0.147765501368621    0.681250431324693    0.990181745934753  0.0000
  Ge     Ge        0.329629145946265    0.763752996549744    0.986549282198263  0.0000
  Ge     Ge        0.648655727675595    0.680090981601811    0.051636562524294  0.0000
  Si     Si        0.175685543574074    0.286821778619480    0.991179204947747  0.0000
  Si     Si        0.853461191681814    0.367315787913498    0.052189986714705  0.0000
  O1     O1        0.128432188166028    0.139837572400460    0.393141576827819  0.0000
  O1     O1        0.373589643575777    0.915255717833678    0.391667508650845  0.0000
  O1     O1        0.926229155740045    0.256496005257874    0.665460689348718  0.0000
  O1     O1        0.586961631876169    0.790164851016986    0.646519358094214  0.0000
  O1     O1        0.878571774434262    0.911385999542535    0.649323501113681  0.0000
  O1     O1        0.628150119175249    0.136349585497541    0.641686287539333  0.0000
  O1     O1        0.083972536184916    0.797125066956233    0.390444875415636  0.0000
  O1     O1        0.425205116888199    0.255748213911398    0.380684194051614  0.0000
  O1     O1        0.977066387133766    0.043408572090739    0.467502279130433  0.0000
  O1     O1        0.476813605195852    0.035115910582033    0.573723480777050  0.0000
  O1     O1        0.025575923018685    0.031870489856569    0.212954784347851  0.0000
  O1     O1        0.528908349204223    0.996817027790128    0.327590755808621  0.0000
  O1     O1        0.033733935365059    0.007219771966992    0.712453429164847  0.0000
  O1     O1        0.528002044276023    0.013072053010424    0.825557572492172  0.0000
  O1     O1        0.636357969573809    0.126494409570150    0.146967543726565  0.0000
  O1     O1        0.881518682169319    0.901991022378134    0.146221696196538  0.0000
  O1     O1        0.414398803985366    0.251544946970373    0.892434777267961  0.0000
  O1     O1        0.086616983637001    0.793525191755083    0.897650865056034  0.0000
  O1     O1        0.379195888644032    0.908431959316110    0.895861522501162  0.0000
  O3     O3        0.133829336293651    0.143902504406237    0.904643322225022  0.0000
  O1     O1        0.581884490783821    0.788705445759031    0.134058097530747  0.0000
  O3     O3        0.911640044025957    0.258350221074719    0.134331881292057  0.0000
  O1     O1        0.482756308005586    0.056752400394075    0.078216180352713  0.0000
  O1     O1        0.980467822803151    0.046206675265668    0.957248413553864  0.0000
  O1     O1        0.159446353980339    0.483440040450655    0.358473390720152  0.0000
  O1     O1        0.345610010838117    0.562998143411793    0.358832353322431  0.0000
  O1     O1        0.846095208822856    0.561707411658586    0.683315262624890  0.0000
  O1     O1        0.663703204007258    0.479212212061933    0.677616646489100  0.0000
  O1     O1        0.272274389166261    0.249287521800569    0.306413540814224  0.0000
  O1     O1        0.233034694119401    0.792940747858621    0.297274622349686  0.0000
  O1     O1        0.773386621757081    0.244407744838552    0.733949670570651  0.0000
  O1     O1        0.735340594899955    0.795249034793731    0.738619364252483  0.0000
  O3     O3        0.147095242563800    0.276631761854278    0.138658037326038  0.0000
  O1     O1        0.362837197794075    0.777416380575173    0.143541094193293  0.0000
  O3     O3        0.882211301588772    0.391366485858266    0.905408876504216  0.0000
  O1     O1        0.620410272840853    0.659737935778031    0.893295212447232  0.0000
  O1     O1        0.862519982915352    0.782253449643425    0.898442849739417  0.0000
  O1     O1        0.645245490056442    0.262792569942058    0.894912454412324  0.0000
  O1     O1        0.113247624701545    0.674439526175634    0.144413096867386  0.0000
  O1     O1        0.383896589649066    0.383826548170632    0.138971524117411  0.0000
  O1     O1        0.656213948501918    0.478329548507172    0.112452324692387  0.0000
  O3     O3        0.843195130059764    0.553039402190515    0.111961938210606  0.0000
  O1     O1        0.344988449575292    0.565404186337255    0.921045278905303  0.0000
  O3     O3        0.159390614623363    0.474773765284777    0.935823112043444  0.0000
  O3     O3        0.773894241993585    0.260843840323783    0.047127450869988  0.0000
  O1     O1        0.734836735542544    0.789705414859706    0.059066932280404  0.0000
  O3     O3        0.265289725345545    0.258029574556640    0.987991299317464  0.0000
  O1     O1        0.233872242784702    0.789950135530932    0.988253202471191  0.0000
