data_c00043.vasp
_audit_creation_method             Generated by GULP
_audit_author_name                 Salvador R. G. Balestra
_symmetry_space_group_name_H-M     'P 1             '
_symmetry_Int_Tables_number        1

loop_
_symmetry_equiv_pos_site_id
_symmetry_equiv_pos_as_xyz
_cell_length_a                       17.5425
_cell_length_b                        7.8634
_cell_length_c                       10.3250
_cell_angle_alpha                   89.8616
_cell_angle_beta                    90.1395
_cell_angle_gamma                   91.7149

loop_
_atom_site_label
_atom_site_type_symbol
_atom_site_fract_x
_atom_site_fract_y
_atom_site_fract_z
_atom_site_charge
  Ge     Ge        0.052090000000021    0.000000000000000    0.372269999999958  0.0000
  Ge     Ge        0.446263630872120    0.056036389185835    0.381438507166482  0.0000
  Ge     Ge        0.945759542943469    0.055011606941930    0.622074759207706  0.0000
  Ge     Ge        0.553182905831183    0.993979184922827    0.130099578815422  0.0000
  Ge     Ge        0.946308249357465    0.056967194748573    0.123774269952456  0.0000
  Ge     Ge        0.051467079514952    0.996915675493730    0.874876836199083  0.0000
  Ge     Ge        0.173923172529815    0.287261112351063    0.260466589762507  0.0000
  Ge     Ge        0.325673437022085    0.770960481846737    0.266912585921455  0.0000
  Ge     Ge        0.846159138635269    0.367467009884157    0.688753873213083  0.0000
  Ge     Ge        0.639494079425964    0.689114112327951    0.701968762950734  0.0000
  Ge     Ge        0.822179464500285    0.767741036570364    0.695559394808070  0.0000
  Ge     Ge        0.663924208259613    0.288399898697418    0.701603193379893  0.0000
  Ge     Ge        0.143747851773471    0.686542414688996    0.255338140998376  0.0000
  Ge     Ge        0.356329262769326    0.371420169105122    0.265339355696586  0.0000
  Ge     Ge        0.673259641539933    0.281693976999337    0.016861105986578  0.0000
  Ge     Ge        0.824936990024226    0.769628467094934    0.009530451304724  0.0000
  Ge     Ge        0.357018233027087    0.368793238501606    0.951916555981875  0.0000
  Ge     Ge        0.151978032622083    0.688024935043786    0.940259171745384  0.0000
  Ge     Ge        0.333823227304100    0.770883972116883    0.953541455643820  0.0000
  Ge     Ge        0.174836579170477    0.287604868847165    0.947514252175097  0.0000
  Ge     Ge        0.643338438001900    0.680769483916657    0.015171662640636  0.0000
  Ge     Ge        0.854354696651007    0.369025365509774    0.004549092348987  0.0000
  Si     Si        0.545561942249000    0.001945852771149    0.632653810278849  0.0000
  Si     Si        0.450858126425915    0.061714194271248    0.880815140364141  0.0000
  O1     O1        0.129740825426185    0.134372056261458    0.353455920262360  0.0000
  O1     O1        0.367847354771324    0.924103802113223    0.361615534206038  0.0000
  O1     O1        0.909991982881920    0.254132458041961    0.600487750498619  0.0000
  O3     O3        0.575888040412871    0.812722201186478    0.616798015950884  0.0000
  O1     O1        0.871682710305870    0.909440622315080    0.599838141704548  0.0000
  O3     O3        0.613911691608964    0.139478109162474    0.609241169193963  0.0000
  O1     O1        0.075984099955398    0.794862287396374    0.337816673700439  0.0000
  O1     O1        0.421586978979956    0.262230423615912    0.353866062822271  0.0000
  O1     O1        0.023689869288831    0.012952794107225    0.531686406455232  0.0000
  O3     O3        0.474905734219519    0.035727955030837    0.541301214158889  0.0000
  O1     O1        0.974506614454496    0.058917235149303    0.283225373077769  0.0000
  O1     O1        0.520798549834816    0.000038145692876    0.285849132578261  0.0000
  O1     O1        0.974538310000170    0.039380479521392    0.782443164837568  0.0000
  O2     O2        0.519751171579570    0.026061009414459    0.783175793434410  0.0000
  O1     O1        0.630800257521148    0.129717680546212    0.112658502679034  0.0000
  O1     O1        0.868782342611644    0.920881831312271    0.104109931656886  0.0000
  O3     O3        0.418717411879718    0.249194274946113    0.860627718931632  0.0000
  O1     O1        0.089563996126114    0.800309843062478    0.848515401776169  0.0000
  O3     O3        0.383794019197612    0.919745322118735    0.861908363516985  0.0000
  O1     O1        0.124368700350987    0.146542563241322    0.853746808211616  0.0000
  O1     O1        0.577754904901419    0.787955412867167    0.102514418871658  0.0000
  O1     O1        0.923647794386340    0.262012180649973    0.083913244063585  0.0000
  O3     O3        0.480553364548598    0.054413641471528    0.028212381589259  0.0000
  O1     O1        0.022364772550852    0.993185775836748    0.034643006472295  0.0000
  O1     O1        0.155318765065697    0.487168460736207    0.318982076404813  0.0000
  O1     O1        0.342669956321642    0.570354268639002    0.326674608787583  0.0000
  O1     O1        0.834348254125238    0.567959168971994    0.630529000659847  0.0000
  O1     O1        0.647647011730074    0.489024656329865    0.639649470872875  0.0000
  O1     O1        0.270406773386811    0.259575818259574    0.262203762880496  0.0000
  O1     O1        0.229429577221154    0.799731407132676    0.261707910860319  0.0000
  O1     O1        0.760039000037776    0.255593316071832    0.691910229771439  0.0000
  O1     O1        0.725959485415622    0.798913887790314    0.700114133727672  0.0000
  O1     O1        0.140699315876989    0.272008301355018    0.103767465064373  0.0000
  O1     O1        0.362675785281206    0.783984792868417    0.112531281722239  0.0000
  O1     O1        0.879225930489908    0.390775789513708    0.844768186653618  0.0000
  O1     O1        0.610383760629111    0.661360579457927    0.858840207012730  0.0000
  O1     O1        0.856542608146908    0.783678393725835    0.851946406227340  0.0000
  O1     O1        0.637981842407507    0.274812365433054    0.861449713055137  0.0000
  O1     O1        0.118315416930880    0.663471433883094    0.096035164808202  0.0000
  O1     O1        0.388362135143922    0.391455170310804    0.108699369202343  0.0000
  O1     O1        0.657199575679144    0.482277585177122    0.077429746325445  0.0000
  O1     O1        0.843397499508420    0.568520748904477    0.067184290455025  0.0000
  O1     O1        0.348830758408264    0.570097096724887    0.891796611707215  0.0000
  O1     O1        0.164138546893839    0.488180550158110    0.882103816897781  0.0000
  O1     O1        0.769648367400694    0.252935299665679    0.013414521625852  0.0000
  O1     O1        0.728300822017917    0.796018417752442    0.011385238808242  0.0000
  O1     O1        0.271117182146782    0.257039719201980    0.953218161197707  0.0000
  O1     O1        0.237692384310695    0.802063403549914    0.947104479845823  0.0000
