data_c00038.vasp
_audit_creation_method             Generated by GULP
_audit_author_name                 Salvador R. G. Balestra
_symmetry_space_group_name_H-M     'P 1             '
_symmetry_Int_Tables_number        1

loop_
_symmetry_equiv_pos_site_id
_symmetry_equiv_pos_as_xyz
_cell_length_a                       17.5855
_cell_length_b                        7.8697
_cell_length_c                       10.2167
_cell_angle_alpha                   89.7914
_cell_angle_beta                    91.0556
_cell_angle_gamma                   88.1010

loop_
_atom_site_label
_atom_site_type_symbol
_atom_site_fract_x
_atom_site_fract_y
_atom_site_fract_z
_atom_site_charge
  Ge     Ge        0.052090000000021    0.000000000000000    0.372269999999958  0.0000
  Ge     Ge        0.441834955350697    0.951534054289708    0.367693760153935  0.0000
  Ge     Ge        0.940097543861445    0.951975940052290    0.613429845422111  0.0000
  Ge     Ge        0.550934919725079    0.009260829808594    0.124085673112878  0.0000
  Ge     Ge        0.942184605244550    0.947016482518710    0.122083165793915  0.0000
  Ge     Ge        0.445337167544941    0.945692394176381    0.866889077976607  0.0000
  Ge     Ge        0.043237202905259    0.012165721379850    0.869945057345578  0.0000
  Ge     Ge        0.144931367674406    0.313992707187722    0.253609382856543  0.0000
  Ge     Ge        0.354182748239786    0.630100551716732    0.252939135742874  0.0000
  Ge     Ge        0.818323682041937    0.240387237327169    0.686087775469834  0.0000
  Ge     Ge        0.659568749855631    0.720357203274361    0.689301444107657  0.0000
  Ge     Ge        0.841521366405833    0.640808493195789    0.681132594479109  0.0000
  Ge     Ge        0.636180747551458    0.319139702581308    0.688217450698925  0.0000
  Ge     Ge        0.170933114361720    0.711102343579330    0.258766409647132  0.0000
  Ge     Ge        0.639398811032662    0.323350305859645    0.004898766067876  0.0000
  Ge     Ge        0.850775581194056    0.635634424506113    0.999242253789063  0.0000
  Ge     Ge        0.321512707269163    0.235046932166282    0.940401111221995  0.0000
  Ge     Ge        0.167715785549600    0.722159185495803    0.942576144950583  0.0000
  Ge     Ge        0.348726433098121    0.636499771869479    0.937906722455597  0.0000
  Ge     Ge        0.142031700832837    0.321452076496934    0.934520513381059  0.0000
  Ge     Ge        0.669426370147066    0.722582454912857    0.007171178674021  0.0000
  Ge     Ge        0.821064244974692    0.235581890671651    0.003456759205357  0.0000
  Si     Si        0.542484176948817    0.009457173836859    0.617358492981801  0.0000
  Si     Si        0.324516181456993    0.237811125568064    0.251026415490527  0.0000
  O1     O1        0.081445217680800    0.201375229940108    0.340293041118621  0.0000
  O1     O1        0.416352641928943    0.744857467229004    0.345936846184671  0.0000
  O1     O1        0.867566141621733    0.101603350286666    0.588245794003483  0.0000
  O3     O3        0.608929314744610    0.867451536644166    0.592953315070874  0.0000
  O1     O1        0.903416232325182    0.754740564584722    0.590015353813039  0.0000
  O3     O3        0.573736171836841    0.197048656524742    0.597654833201291  0.0000
  O1     O1        0.128015324725021    0.861531518178579    0.355156619133961  0.0000
  O3     O3        0.365366892528984    0.089606456735647    0.336261644115989  0.0000
  O1     O1        0.020986206140455    0.990586757022797    0.531384526820608  0.0000
  O3     O3        0.467908105564297    0.976848569009079    0.531490666351866  0.0000
  O1     O1        0.972599935708449    0.948176906472529    0.282899460378350  0.0000
  O1     O1        0.520932035459080    0.999268003602569    0.282586762078348  0.0000
  O1     O1        0.965819920515208    0.965971685766750    0.777931939281029  0.0000
  O3     O3        0.520543699048998    0.990028979912129    0.770180139364522  0.0000
  O1     O1        0.574613904276331    0.215333403108026    0.092232269870766  0.0000
  O1     O1        0.918693348031099    0.742143923967548    0.084029687872600  0.0000
  O1     O1        0.372154131219467    0.095087635297639    0.847827767132158  0.0000
  O1     O1        0.117154102403258    0.865871879109387    0.848385300917672  0.0000
  O1     O1        0.409290120383442    0.747620612706518    0.842646188809384  0.0000
  O1     O1        0.076982515319351    0.212604668897459    0.844050820907909  0.0000
  O1     O1        0.628904559256733    0.875183728616868    0.103636869423790  0.0000
  O1     O1        0.864503587421896    0.082973491284011    0.100323030901791  0.0000
  O1     O1        0.476402941838365    0.948406848008432    0.027326688599838  0.0000
  O1     O1        0.017230003984185    0.010089824790068    0.032226818678945  0.0000
  O1     O1        0.152495606589678    0.512455742820538    0.319249362139608  0.0000
  O3     O3        0.343713348423794    0.423038680172801    0.308377261315627  0.0000
  O1     O1        0.829256154926620    0.441481012993977    0.621771421631879  0.0000
  O1     O1        0.644076122347672    0.519953262712060    0.626603891945638  0.0000
  O3     O3        0.234296058382208    0.212433867492625    0.251868271330340  0.0000
  O1     O1        0.267133762349361    0.734878930695633    0.257087652500488  0.0000
  O1     O1        0.722409721487653    0.208648302989600    0.689204938465279  0.0000
  O1     O1        0.755414751111099    0.752999056368647    0.684580883412960  0.0000
  O1     O1        0.113858680066820    0.337143873724739    0.094831054345860  0.0000
  O1     O1        0.385270994639074    0.622412073565507    0.095608162788392  0.0000
  O1     O1        0.852726531106649    0.223570367689477    0.845028764183022  0.0000
  O1     O1        0.632236846831538    0.732552079665883    0.849880024397104  0.0000
  O1     O1        0.876558127678979    0.617106938945844    0.838586791669683  0.0000
  O1     O1        0.606260387028412    0.343577577591067    0.845908701140162  0.0000
  O1     O1        0.135599057023633    0.732193752325150    0.101124144146968  0.0000
  O3     O3        0.353780137460297    0.226575539678026    0.102567657633863  0.0000
  O1     O1        0.652839360647675    0.521916489042640    0.067488345724111  0.0000
  O1     O1        0.840056383608812    0.435753723480479    0.062051614735186  0.0000
  O1     O1        0.334805280657311    0.437497964801666    0.880229185847889  0.0000
  O1     O1        0.154011650376148    0.521917785899701    0.877754549849184  0.0000
  O1     O1        0.724722874225333    0.209848242455156    0.002944174689025  0.0000
  O1     O1        0.765522832558985    0.749621441424867    0.003115139769101  0.0000
  O1     O1        0.226292311790844    0.201409834680817    0.933740420691429  0.0000
  O1     O1        0.263643590017119    0.752420733778230    0.944973364626361  0.0000
