data_c00003.vasp
_audit_creation_method             Generated by GULP
_audit_author_name                 Salvador R. G. Balestra
_symmetry_space_group_name_H-M     'P 1             '
_symmetry_Int_Tables_number        1

loop_
_symmetry_equiv_pos_site_id
_symmetry_equiv_pos_as_xyz
_cell_length_a                       17.6523
_cell_length_b                        7.8693
_cell_length_c                       10.3626
_cell_angle_alpha                   90.5615
_cell_angle_beta                    89.8219
_cell_angle_gamma                   88.4887

loop_
_atom_site_label
_atom_site_type_symbol
_atom_site_fract_x
_atom_site_fract_y
_atom_site_fract_z
_atom_site_charge
  Ge     Ge        0.052090000000021    0.000000000000000    0.372269999999958  0.0000
  Ge     Ge        0.450663444550028    0.941296555721397    0.405367699836295  0.0000
  Ge     Ge        0.949819932577530    0.949998837059166    0.627618840493091  0.0000
  Ge     Ge        0.552039880103469    0.999584339960947    0.659843254307797  0.0000
  Ge     Ge        0.556219951624646    0.995993359510477    0.158632814098815  0.0000
  Ge     Ge        0.948027199505669    0.943763020191911    0.119086381377713  0.0000
  Ge     Ge        0.449087901373310    0.929472507915957    0.913162061742022  0.0000
  Ge     Ge        0.056859504308252    0.991998072863641    0.872951355752550  0.0000
  Ge     Ge        0.149514184438825    0.311555663603333    0.301266998595955  0.0000
  Ge     Ge        0.355117169770411    0.630403606072726    0.288556323960951  0.0000
  Ge     Ge        0.828170218851724    0.237607304334169    0.737845468309258  0.0000
  Ge     Ge        0.676104858674829    0.716789376416985    0.736522920363160  0.0000
  Ge     Ge        0.856332354921054    0.637859036966089    0.742405448620644  0.0000
  Ge     Ge        0.646689638642353    0.315850915140050    0.731310071502835  0.0000
  Ge     Ge        0.174668401220682    0.714279876557634    0.294033862470890  0.0000
  Ge     Ge        0.328509243163463    0.229201659727721    0.296366350564022  0.0000
  Ge     Ge        0.644374444309885    0.314165027680616    0.041678701059357  0.0000
  Ge     Ge        0.848725560356952    0.631397460486679    0.056419181561954  0.0000
  Ge     Ge        0.325860190742548    0.218042508462987    0.982934787676791  0.0000
  Ge     Ge        0.171795699898162    0.694513224062858    0.982411372123428  0.0000
  Ge     Ge        0.352846491465868    0.614519296756247    0.974137726568406  0.0000
  Ge     Ge        0.826021653534749    0.234205845865501    0.049951447793151  0.0000
  Si     Si        0.148808578308282    0.299039533138254    0.993885313695787  0.0000
  Si     Si        0.671715314673794    0.709335376898158    0.042755055838876  0.0000
  O1     O1        0.084213268306242    0.203625654615240    0.388583692149349  0.0000
  O1     O1        0.422136142024941    0.739203187306972    0.371956511670214  0.0000
  O1     O1        0.873549875918630    0.086747718962577    0.644588519184278  0.0000
  O1     O1        0.627676574580704    0.858008585966892    0.642775514154554  0.0000
  O1     O1        0.924700017963885    0.746260915545058    0.662733077681926  0.0000
  O1     O1        0.584885119432684    0.200975277260075    0.639302739513927  0.0000
  O1     O1        0.126725934313152    0.857081895340268    0.391050031333851  0.0000
  O1     O1        0.376977798938161    0.084624938426056    0.387900140270562  0.0000
  O1     O1        0.977020825580862    0.957875951668555    0.467713485158378  0.0000
  O1     O1        0.477300964412879    0.951738989594140    0.565366557273714  0.0000
  O1     O1        0.023898319759931    0.980043547675124    0.213122261417626  0.0000
  O1     O1        0.529883686641135    0.989445552426732    0.318159148749149  0.0000
  O1     O1        0.027422929873937    0.008259048628166    0.715509374753233  0.0000
  O1     O1        0.523162399803138    0.980381316435888    0.818978858793739  0.0000
  O1     O1        0.581942572245608    0.202110196381159    0.131322378541780  0.0000
  O1     O1        0.908945398795815    0.748619097963463    0.146639605648050  0.0000
  O1     O1        0.371557946018684    0.066186014341107    0.892840908983452  0.0000
  O1     O1        0.125272343916941    0.833513558229798    0.882855468712290  0.0000
  O1     O1        0.416756702183584    0.727574619919104    0.887338051438058  0.0000
  O3     O3        0.087846032816808    0.191408487085854    0.917444755998036  0.0000
  O3     O3        0.630388401801705    0.852314778918505    0.129845741040924  0.0000
  O1     O1        0.875216730218700    0.091346224518462    0.141446922669015  0.0000
  O1     O1        0.477829295751021    0.944059245646325    0.072049595347877  0.0000
  O1     O1        0.978173890208881    0.943791765016244    0.960512315814851  0.0000
  O1     O1        0.160273360948943    0.513800529226265    0.355715762319504  0.0000
  O1     O1        0.342607259795951    0.433055396856602    0.352630100551985  0.0000
  O1     O1        0.844734143105802    0.437814044807671    0.679303090447592  0.0000
  O1     O1        0.659376014721263    0.515610679621850    0.675611246140565  0.0000
  O1     O1        0.233137589781268    0.194745586599391    0.305156862620678  0.0000
  O1     O1        0.270363755714339    0.745664290243428    0.291891301261372  0.0000
  O1     O1        0.732486063944990    0.206516481353451    0.737190558503511  0.0000
  O1     O1        0.771181425251788    0.750957425270872    0.732833641191775  0.0000
  O3     O3        0.121888511618285    0.326800858114650    0.140766750744237  0.0000
  O1     O1        0.383148723591245    0.600832642400323    0.131596383354984  0.0000
  O1     O1        0.860149614024789    0.222255892186217    0.894027837438699  0.0000
  O3     O3        0.643072375429171    0.722632532246341    0.895394314972684  0.0000
  O1     O1        0.881780577670444    0.613600494760221    0.900407967400980  0.0000
  O1     O1        0.611803184188928    0.323922900139280    0.886779286280019  0.0000
  O1     O1        0.140789742540003    0.726970723595592    0.138058090582296  0.0000
  O1     O1        0.358810000204145    0.210692920766866    0.139015703474323  0.0000
  O3     O3        0.654900465191682    0.521660571981587    0.096540921674108  0.0000
  O1     O1        0.840134759143544    0.433137203100034    0.116608257264018  0.0000
  O1     O1        0.343871917575099    0.412911674929032    0.915806577360328  0.0000
  O3     O3        0.158253001017179    0.484535349630181    0.933202333019787  0.0000
  O1     O1        0.730253332211556    0.206109569472696    0.046877892978970  0.0000
  O3     O3        0.761273472237612    0.737539844585262    0.045180468298047  0.0000
  O3     O3        0.228677004253068    0.193767988176486    0.989476153708341  0.0000
  O1     O1        0.267250114328935    0.725200412821031    0.975742224970466  0.0000
