data_c00032.vasp
_audit_creation_method             Generated by GULP
_audit_author_name                 Salvador R. G. Balestra
_symmetry_space_group_name_H-M     'P 1             '
_symmetry_Int_Tables_number        1

loop_
_symmetry_equiv_pos_site_id
_symmetry_equiv_pos_as_xyz
_cell_length_a                       17.7756
_cell_length_b                        7.9289
_cell_length_c                       10.4547
_cell_angle_alpha                   89.8862
_cell_angle_beta                    90.9061
_cell_angle_gamma                   89.9682

loop_
_atom_site_label
_atom_site_type_symbol
_atom_site_fract_x
_atom_site_fract_y
_atom_site_fract_z
_atom_site_charge
  Ge     Ge        0.052090000000021    0.000000000000000    0.372269999999958  0.0000
  Ge     Ge        0.447121861583929    0.031873409521611    0.374736337376843  0.0000
  Ge     Ge        0.947722697738117    0.006218849395923    0.626551883295597  0.0000
  Ge     Ge        0.548973251556520    0.029733021545832    0.632327822937132  0.0000
  Ge     Ge        0.555791868481144    0.029701984597997    0.133252600345972  0.0000
  Ge     Ge        0.444884694273916    0.026216142677920    0.884689572558857  0.0000
  Ge     Ge        0.169281838568885    0.287512449734160    0.264541935356470  0.0000
  Ge     Ge        0.327640835511259    0.745612148045597    0.259426647680217  0.0000
  Ge     Ge        0.830266095101349    0.291176744668482    0.705219297563846  0.0000
  Ge     Ge        0.668995940555353    0.745679255223554    0.706842591923932  0.0000
  Ge     Ge        0.849582891171078    0.693581390558244    0.706726821136137  0.0000
  Ge     Ge        0.649909012311666    0.341790450325483    0.707782551205213  0.0000
  Ge     Ge        0.147640133969010    0.688448395418760    0.266154479783899  0.0000
  Ge     Ge        0.349139800917017    0.343136725901731    0.260710294465937  0.0000
  Ge     Ge        0.651886829003172    0.341620732072487    0.019224001906693  0.0000
  Ge     Ge        0.854170563487655    0.693791901777897    0.016978110492730  0.0000
  Ge     Ge        0.342363617510547    0.340434296175110    0.948438029233967  0.0000
  Ge     Ge        0.142672323615455    0.696780832543086    0.955145848154971  0.0000
  Ge     Ge        0.324534009950896    0.741740116327405    0.948709211196464  0.0000
  Ge     Ge        0.160527472737802    0.295035483177230    0.953615645069545  0.0000
  Ge     Ge        0.671975142079037    0.744819400828033    0.016413541175710  0.0000
  Ge     Ge        0.834072277535144    0.291217323655414    0.015819834136816  0.0000
  Si     Si        0.945652757875521    0.004426953701246    0.125735844296887  0.0000
  Si     Si        0.045529349533505    0.009928053135902    0.883575538528456  0.0000
  O1     O1        0.123327436569982    0.142120298183706    0.354193770876832  0.0000
  O1     O1        0.376533098009072    0.889104421821394    0.348600988561971  0.0000
  O1     O1        0.878614747700028    0.156738817943194    0.609193288165934  0.0000
  O1     O1        0.617812962280383    0.879697988243918    0.611621646807035  0.0000
  O1     O1        0.908579936395473    0.809775586560880    0.612893544297449  0.0000
  O1     O1        0.588244119412103    0.226376655212545    0.616154659286015  0.0000
  O1     O1        0.085974071428753    0.799489106772747    0.357752789553959  0.0000
  O1     O1        0.414822801740891    0.232950517891418    0.347422328313264  0.0000
  O1     O1        0.019554551003685    0.031328787947031    0.524026632248776  0.0000
  O1     O1        0.473116456207812    0.008807592839475    0.533109484204553  0.0000
  O3     O3        0.977136771967966    0.032494500077421    0.267825772588753  0.0000
  O1     O1        0.526786318182625    0.000600387889997    0.287655638654932  0.0000
  O3     O3        0.978809012750526    0.034839836011060    0.783633170907652  0.0000
  O1     O1        0.519555486426653    0.002598309240652    0.787711984888144  0.0000
  O1     O1        0.590055132720735    0.229985575085196    0.109523918358890  0.0000
  O3     O3        0.914809656109675    0.815234240420958    0.108908983066521  0.0000
  O1     O1        0.403538569784294    0.221016202565592    0.862735201792635  0.0000
  O3     O3        0.081593250499571    0.824906519662250    0.868614763573404  0.0000
  O1     O1        0.375088691316257    0.878274830659458    0.858379220281136  0.0000
  O3     O3        0.109616998676512    0.150616860706795    0.864766077332713  0.0000
  O1     O1        0.627054521616141    0.888479034308882    0.108621589464852  0.0000
  O3     O3        0.879491605730126    0.138844771761163    0.105064710160278  0.0000
  O1     O1        0.477114842574560    0.998474616165196    0.039493784308043  0.0000
  O2     O2        0.014028173419584    0.034932671435277    0.027469580422147  0.0000
  O1     O1        0.157933976338423    0.488394665324626    0.324953680549798  0.0000
  O1     O1        0.340971588513905    0.544060978561737    0.318351084868983  0.0000
  O1     O1        0.839999876889423    0.494234378973625    0.647918075410459  0.0000
  O1     O1        0.657961817700315    0.542452239449461    0.650709393772124  0.0000
  O1     O1        0.263479010587400    0.241885048029645    0.265374396076471  0.0000
  O1     O1        0.233275319528032    0.789706649720083    0.263813650739693  0.0000
  O1     O1        0.736325468385591    0.242874153742624    0.707273222539594  0.0000
  O1     O1        0.763085487017785    0.792584727100052    0.708254147808143  0.0000
  O1     O1        0.134494216443158    0.290276390128763    0.110703755424182  0.0000
  O1     O1        0.357519127948786    0.748636533526669    0.104405378842119  0.0000
  O1     O1        0.863383232258109    0.287387296742561    0.860873358748214  0.0000
  O1     O1        0.637856727837184    0.753702578655111    0.862018463534978  0.0000
  O1     O1        0.884070915754172    0.687320918862161    0.861687198193968  0.0000
  O1     O1        0.619230249210573    0.344715991187272    0.863322560824547  0.0000
  O1     O1        0.114303296892400    0.683811019236460    0.110797281156351  0.0000
  O1     O1        0.375920838566046    0.348878414846663    0.103619939750017  0.0000
  O1     O1        0.658600696216099    0.544030519737018    0.075068954313906  0.0000
  O1     O1        0.850575950554613    0.491297528526753    0.075210893421336  0.0000
  O1     O1        0.334879358850412    0.540627554161196    0.888982280606392  0.0000
  O1     O1        0.145631865904395    0.496115999829044    0.894298488497565  0.0000
  O1     O1        0.739584448604228    0.249795882128184    0.021258243477154  0.0000
  O1     O1        0.766694352473856    0.784728656266888    0.016525303414660  0.0000
  O1     O1        0.254526364045464    0.248246078800400    0.947233977770156  0.0000
  O1     O1        0.230300968096550    0.787760437876661    0.950112915191765  0.0000
