data_c00001.vasp
_audit_creation_method             Generated by GULP
_audit_author_name                 Salvador R. G. Balestra
_symmetry_space_group_name_H-M     'P 1             '
_symmetry_Int_Tables_number        1

loop_
_symmetry_equiv_pos_site_id
_symmetry_equiv_pos_as_xyz
_cell_length_a                       17.6134
_cell_length_b                        7.8833
_cell_length_c                       10.3459
_cell_angle_alpha                   90.0001
_cell_angle_beta                    89.9999
_cell_angle_gamma                   87.8779

loop_
_atom_site_label
_atom_site_type_symbol
_atom_site_fract_x
_atom_site_fract_y
_atom_site_fract_z
_atom_site_charge
  Ge     Ge        0.052090000000021    0.000000000000000    0.372269999999958  0.0000
  Ge     Ge        0.450782956750777    0.933735965310813    0.372272674037379  0.0000
  Ge     Ge        0.949967598631030    0.939452292728120    0.624686766113981  0.0000
  Ge     Ge        0.552905485087143    0.994283969640440    0.624688223112938  0.0000
  Ge     Ge        0.561142811916032    0.988377190436338    0.130284918399984  0.0000
  Ge     Ge        0.941731778092793    0.945360145871121    0.130280904807464  0.0000
  Ge     Ge        0.453726004426310    0.932973195095399    0.881854564076150  0.0000
  Ge     Ge        0.049150883473437    0.000759060234242    0.881851940034897  0.0000
  Ge     Ge        0.146703864275346    0.309231908392332    0.259268001424603  0.0000
  Ge     Ge        0.356170351957534    0.624502833279388    0.259270634958265  0.0000
  Ge     Ge        0.828099520627507    0.226356735584586    0.705185197161474  0.0000
  Ge     Ge        0.674772613640708    0.707380344242769    0.705186799253151  0.0000
  Ge     Ge        0.855671901926867    0.628564921111969    0.701594270824103  0.0000
  Ge     Ge        0.647200154353437    0.305171871016648    0.701597070562824  0.0000
  Ge     Ge        0.174664383156790    0.708082892359756    0.259859014693821  0.0000
  Ge     Ge        0.328209460183386    0.225650686528692    0.259858779260177  0.0000
  Ge     Ge        0.648638927271021    0.307968062444933    0.012095596517894  0.0000
  Ge     Ge        0.854235389854986    0.625768477734329    0.012093139454946  0.0000
  Ge     Ge        0.328760749662256    0.223795706852583    0.945775743376258  0.0000
  Ge     Ge        0.174115933631379    0.709936289249273    0.945775992773967  0.0000
  Ge     Ge        0.354621478015313    0.622616865711672    0.944011127455561  0.0000
  Ge     Ge        0.148255438576276    0.311116205748915    0.944007630673217  0.0000
  Si     Si        0.673031139954651    0.698411139423229    0.010675558645396  0.0000
  Si     Si        0.829843270460242    0.235325323133162    0.010673424108243  0.0000
  O1     O1        0.079621044520742    0.202744792924023    0.343655614483483  0.0000
  O1     O1        0.423252303049274    0.730989362899761    0.343661141486286  0.0000
  O1     O1        0.876112502536721    0.087128081320703    0.606629514742233  0.0000
  O1     O1        0.626760644056125    0.846607616627704    0.606629443740873  0.0000
  O1     O1        0.917056978489427    0.738601282739568    0.606684719906875  0.0000
  O1     O1        0.585814448302185    0.195136411618814    0.606687733931694  0.0000
  O1     O1        0.127408697854572    0.860472113943629    0.348688054771558  0.0000
  O1     O1        0.375463832842021    0.073260034978987    0.348687246691238  0.0000
  O1     O1        0.026557655481317    0.981125509997690    0.532784182032831  0.0000
  O1     O1        0.476314758102375    0.952612372035541    0.532787308743029  0.0000
  O1     O1        0.970960065918172    0.955368334322908    0.288310647046998  0.0000
  O1     O1        0.531913415758407    0.978368047188182    0.288314412206662  0.0000
  O1     O1        0.974635321946301    0.960240781581539    0.785967033998444  0.0000
  O1     O1        0.528241789788748    0.973489330690867    0.785969297679294  0.0000
  O1     O1        0.591689260336859    0.191505938491892    0.107531595681307  0.0000
  O1     O1        0.911186258385965    0.742231474862840    0.107525916714870  0.0000
  O1     O1        0.379414913465332    0.078661875222106    0.856397063587475  0.0000
  O1     O1        0.123462178202321    0.855070714680013    0.856397547606342  0.0000
  O1     O1        0.419328229138418    0.733649146082600    0.858344356077627  0.0000
  O1     O1        0.083549367651788    0.200082316636300    0.858341671326842  0.0000
  O3     O3        0.635571227868226    0.844809814624059    0.099154651826721  0.0000
  O3     O3        0.867303159268150    0.088927199329767    0.099152104863203  0.0000
  O1     O1        0.482467222966619    0.946827576949826    0.041156604432089  0.0000
  O1     O1        0.020407583311113    0.986911588934050    0.041153967848586  0.0000
  O1     O1        0.158386531484090    0.508698286405347    0.320675160773594  0.0000
  O1     O1        0.344487770604567    0.425034887057158    0.320674832807210  0.0000
  O1     O1        0.843300478820717    0.428258735321873    0.647156177121678  0.0000
  O1     O1        0.659571291690820    0.505477463831770    0.647158823297288  0.0000
  O1     O1        0.232249552359862    0.195663562400124    0.263413542037771  0.0000
  O1     O1        0.270624311617578    0.738069261612974    0.263414432285690  0.0000
  O1     O1        0.733157769394014    0.192043673094162    0.702817436221651  0.0000
  O1     O1        0.769714469731932    0.741693238184139    0.702818124100813  0.0000
  O1     O1        0.118155540312997    0.330987092100398    0.101669448652257  0.0000
  O1     O1        0.384720999148635    0.602752237891153    0.101672584975025  0.0000
  O3     O3        0.861004991173987    0.219350771743476    0.864379866368153  0.0000
  O3     O3        0.641868655303656    0.714384139392687    0.864382822770646  0.0000
  O1     O1        0.889490974298282    0.624091563309961    0.858086188948382  0.0000
  O1     O1        0.613382014551238    0.309643171777578    0.858089699429903  0.0000
  O1     O1        0.142577249935881    0.719131024551558    0.103393319344201  0.0000
  O1     O1        0.360297686974591    0.214602624166820    0.103393550167828  0.0000
  O3     O3        0.652337804246136    0.515104032463854    0.067437717203780  0.0000
  O3     O3        0.850536771181526    0.418632629526762    0.067435438640870  0.0000
  O1     O1        0.342532537074259    0.424537869687176    0.883544277401858  0.0000
  O1     O1        0.160344902713637    0.509195527241461    0.883541005692730  0.0000
  O3     O3        0.739572712892467    0.217991053400264    0.007440227076160  0.0000
  O3     O3        0.763301645456723    0.715746708365656    0.007442257834172  0.0000
  O1     O1        0.233060765338782    0.193404398671540    0.944760855980322  0.0000
  O1     O1        0.269815883490005    0.740328032950624    0.944763544966354  0.0000
