data_c00003.vasp
_audit_creation_method             Generated by GULP
_audit_author_name                 Salvador R. G. Balestra
_symmetry_space_group_name_H-M     'P 1             '
_symmetry_Int_Tables_number        1

loop_
_symmetry_equiv_pos_site_id
_symmetry_equiv_pos_as_xyz
_cell_length_a                        9.2021
_cell_length_b                        7.8272
_cell_length_c                       10.3985
_cell_angle_alpha                   88.9550
_cell_angle_beta                   106.4228
_cell_angle_gamma                   91.5900

loop_
_atom_site_label
_atom_site_type_symbol
_atom_site_fract_x
_atom_site_fract_y
_atom_site_fract_z
_atom_site_charge
  Ge     Ge        0.313819999999964    0.296860000000038    0.309830000000034  0.0000
  Ge     Ge        0.676598785326474    0.373005422722541    0.713748406229030  0.0000
  Ge     Ge        0.622977440672509    0.774002707647607    0.697712593159094  0.0000
  Ge     Ge        0.256258894692235    0.698731045729301    0.302631175395568  0.0000
  Ge     Ge        0.314963655393633    0.293503670370859    0.621112551958151  0.0000
  Ge     Ge        0.674631484749496    0.383501649716925    0.400063777431098  0.0000
  Ge     Ge        0.613393141013784    0.787242649601230    0.381546916781220  0.0000
  Ge     Ge        0.856707317618128    0.073038831669793    0.326181284081202  0.0000
  Ge     Ge        0.074457025230873    0.995505163515360    0.624651652314257  0.0000
  Ge     Ge        0.070656519092891    0.013771746041917    0.138901421711701  0.0000
  Ge     Ge        0.871481690499199    0.053760184794354    0.831298417147218  0.0000
  Si     Si        0.271683118466777    0.687408321745298    0.613491571080154  0.0000
  O1     O1        0.250332876863499    0.271542018187232    0.449821169720733  0.0000
  O1     O1        0.734988461172675    0.396950966829722    0.571353120107622  0.0000
  O1     O1        0.678785533788800    0.797075240104745    0.553451357324195  0.0000
  O3     O3        0.216282568927719    0.660973889903829    0.453580379822759  0.0000
  O1     O1        0.277457440908802    0.500517402239486    0.244196476135874  0.0000
  O1     O1        0.658780295836017    0.572905533152981    0.768356453838599  0.0000
  O1     O1        0.505620507361042    0.268424995995629    0.355572812843332  0.0000
  O1     O1        0.505894326057182    0.259663159349933    0.672323018268135  0.0000
  O3     O3        0.428359053037180    0.798391951928883    0.649780834295086  0.0000
  O1     O1        0.421586483531103    0.818070629023939    0.329331029288508  0.0000
  O1     O1        0.223480156322947    0.150000331963349    0.192869399109356  0.0000
  O1     O1        0.807976474365796    0.257870842550869    0.830465816027483  0.0000
  O1     O1        0.717090141570300    0.916533045669913    0.815451997628407  0.0000
  O1     O1        0.113786796116588    0.808171925707294    0.195200295391790  0.0000
  O3     O3        0.294297475889387    0.498688614705350    0.676791445028132  0.0000
  O1     O1        0.646977872227370    0.585435052552183    0.333217208731466  0.0000
  O1     O1        0.210814097684166    0.151701064661670    0.687199333827783  0.0000
  O1     O1        0.809144102033088    0.278411428401618    0.350082701360417  0.0000
  O1     O1        0.702234106421670    0.938433757483189    0.308623885573671  0.0000
  O3     O3        0.152314441019981    0.793697520076456    0.663335601668298  0.0000
  O1     O1        0.008984380065897    0.006048680676413    0.452669397521964  0.0000
  O1     O1        0.914485248122376    0.077228679671132    0.182732543704403  0.0000
  O1     O1        0.925747512506525    0.020038944032690    0.687685600634173  0.0000
  O1     O1        0.020663252566182    0.012526074362046    0.966055698143768  0.0000
