data_c00001.vasp
_audit_creation_method             Generated by GULP
_audit_author_name                 Salvador R. G. Balestra
_symmetry_space_group_name_H-M     'P 1             '
_symmetry_Int_Tables_number        1

loop_
_symmetry_equiv_pos_site_id
_symmetry_equiv_pos_as_xyz
_cell_length_a                        9.1693
_cell_length_b                        7.8529
_cell_length_c                       10.3365
_cell_angle_alpha                   88.6035
_cell_angle_beta                   107.2727
_cell_angle_gamma                   92.0759

loop_
_atom_site_label
_atom_site_type_symbol
_atom_site_fract_x
_atom_site_fract_y
_atom_site_fract_z
_atom_site_charge
  Ge     Ge        0.313819999999964    0.296860000000038    0.309830000000034  0.0000
  Ge     Ge        0.683822332360261    0.369884427959216    0.713991785843260  0.0000
  Ge     Ge        0.635235894751180    0.771428920538320    0.701115338795582  0.0000
  Ge     Ge        0.252774425662081    0.696629037656093    0.300423551364567  0.0000
  Ge     Ge        0.318998321900174    0.286912485393673    0.624059016487652  0.0000
  Ge     Ge        0.678511717922324    0.384290267226991    0.399868315863845  0.0000
  Ge     Ge        0.616405225256658    0.784061700858834    0.381862709853570  0.0000
  Ge     Ge        0.271236690978241    0.687559784745497    0.620117507830283  0.0000
  Ge     Ge        0.857523303278097    0.072624895707395    0.328609651338102  0.0000
  Ge     Ge        0.071601557775978    0.995715971119272    0.635705599911361  0.0000
  Ge     Ge        0.068826252017183    0.013723927460826    0.135906979144351  0.0000
  Si     Si        0.871641978576195    0.056140364860552    0.832226299631842  0.0000
  O1     O1        0.249020834617262    0.275101886022836    0.449876695352612  0.0000
  O1     O1        0.744059093085959    0.401192564508896    0.573207833906374  0.0000
  O1     O1        0.689987500793246    0.789621322811706    0.555921741595612  0.0000
  O1     O1        0.203100940018318    0.668481329390033    0.446808326786768  0.0000
  O1     O1        0.276469275224184    0.499607312611130    0.242894615025684  0.0000
  O1     O1        0.666854238024806    0.568302479590045    0.771203428671662  0.0000
  O1     O1        0.507298410763073    0.270252279651721    0.358175689113289  0.0000
  O1     O1        0.511932339442819    0.257203679924853    0.668467902064576  0.0000
  O1     O1        0.442658230554422    0.802481385545737    0.658889279908701  0.0000
  O1     O1        0.423432797611936    0.811933638871978    0.337405384466380  0.0000
  O1     O1        0.225177142401518    0.147323311016222    0.193095152910010  0.0000
  O3     O3        0.810676503031354    0.245071926515969    0.833697064131583  0.0000
  O3     O3        0.735596294003340    0.916049749038458    0.821061186517642  0.0000
  O1     O1        0.114934623500614    0.807388795365915    0.184178890901714  0.0000
  O1     O1        0.296970390787212    0.485154124440577    0.683867168006641  0.0000
  O1     O1        0.650532891236094    0.585256429702130    0.330654019764181  0.0000
  O1     O1        0.220107212191370    0.141712761227014    0.692849085181606  0.0000
  O1     O1        0.811140242177630    0.278313894226304    0.349565998039513  0.0000
  O1     O1        0.699719306931529    0.939383250481207    0.307243011478755  0.0000
  O1     O1        0.145029386231581    0.796406714826885    0.677896476256707  0.0000
  O1     O1        0.005692466978254    0.003849188824143    0.461475969190116  0.0000
  O1     O1        0.917436986685937    0.074787983902240    0.186303232563572  0.0000
  O3     O3        0.921549050404532    0.036539220140985    0.695612401438263  0.0000
  O3     O3        0.015243838240997    0.022044205588663    0.959846339010639  0.0000
