data_c00002.vasp
_audit_creation_method             Generated by GULP
_audit_author_name                 Salvador R. G. Balestra
_symmetry_space_group_name_H-M     'P 1             '
_symmetry_Int_Tables_number        1

loop_
_symmetry_equiv_pos_site_id
_symmetry_equiv_pos_as_xyz
_cell_length_a                        9.1103
_cell_length_b                        7.8647
_cell_length_c                       10.2109
_cell_angle_alpha                   89.4415
_cell_angle_beta                   104.7375
_cell_angle_gamma                   91.7527

loop_
_atom_site_label
_atom_site_type_symbol
_atom_site_fract_x
_atom_site_fract_y
_atom_site_fract_z
_atom_site_charge
  Ge     Ge        0.313819999999964    0.296860000000038    0.309830000000034  0.0000
  Ge     Ge        0.666888405025690    0.376110433797355    0.716099842337226  0.0000
  Ge     Ge        0.614276896286355    0.774417533408460    0.705211299553549  0.0000
  Ge     Ge        0.262879557034867    0.698626256342990    0.295672080209611  0.0000
  Ge     Ge        0.302994759663157    0.295272897492843    0.626660185442117  0.0000
  Ge     Ge        0.672789060578269    0.382785670826122    0.397481189655475  0.0000
  Ge     Ge        0.622906774572350    0.782675891068667    0.390310129715133  0.0000
  Ge     Ge        0.249131210551377    0.697862571202809    0.609607004936302  0.0000
  Ge     Ge        0.874948784348730    0.071906847382897    0.385635863023821  0.0000
  Ge     Ge        0.073954752587148    0.011440985849996    0.171891330726654  0.0000
  Ge     Ge        0.854613379021090    0.061975508135860    0.872554826138359  0.0000
  Si     Si        0.070203890897834    0.006710899820475    0.682687649899301  0.0000
  O1     O1        0.246120130630625    0.283863442937438    0.453039576849826  0.0000
  O1     O1        0.724942948441735    0.405151720390758    0.570731365512951  0.0000
  O1     O1        0.683605455200084    0.792300187934297    0.564329854918873  0.0000
  O1     O1        0.193083344266398    0.677955796659131    0.436893558716657  0.0000
  O1     O1        0.290849862010558    0.500607635477784    0.243298706625373  0.0000
  O1     O1        0.644378752753573    0.574495025796147    0.775451910066417  0.0000
  O1     O1        0.505008097998762    0.263494107403766    0.356797670645918  0.0000
  O1     O1        0.494723579927184    0.266141116101642    0.679569623095093  0.0000
  O1     O1        0.421953725411866    0.803193912152880    0.656821443709469  0.0000
  O1     O1        0.431639308984505    0.815807384690768    0.343030088123339  0.0000
  O1     O1        0.219244348127446    0.160775911633157    0.185381355796565  0.0000
  O1     O1        0.800101591865889    0.265677583829864    0.831334890059304  0.0000
  O1     O1        0.702559765808328    0.924802215362654    0.820688563223519  0.0000
  O1     O1        0.141828852505772    0.810821302504398    0.170427348786955  0.0000
  O1     O1        0.263148569120853    0.494936409133733    0.675485234529209  0.0000
  O1     O1        0.649782822512698    0.583019775278998    0.331511149404207  0.0000
  O3     O3        0.213101783970713    0.136652269738662    0.697537266928393  0.0000
  O1     O1        0.806755384666301    0.272938650496771    0.345426948414455  0.0000
  O1     O1        0.727084093853426    0.928408974904225    0.325360829296534  0.0000
  O3     O3        0.115837487125100    0.815072623928345    0.659969112993509  0.0000
  O3     O3        0.930115676509644    0.064749685273523    0.561956366255520  0.0000
  O1     O1        0.025363172588006    0.030489993809198    0.324878166513809  0.0000
  O3     O3        0.013001191188639    0.007659896005245    0.818987919762457  0.0000
  O1     O1        0.916607366933312    0.049594759749434    0.046434852094474  0.0000
