data_c00004.vasp
_audit_creation_method             Generated by GULP
_audit_author_name                 Salvador R. G. Balestra
_symmetry_space_group_name_H-M     'P 1             '
_symmetry_Int_Tables_number        1

loop_
_symmetry_equiv_pos_site_id
_symmetry_equiv_pos_as_xyz
_cell_length_a                        9.5915
_cell_length_b                        7.9337
_cell_length_c                        9.9007
_cell_angle_alpha                   80.5506
_cell_angle_beta                   117.6379
_cell_angle_gamma                   88.1448

loop_
_atom_site_label
_atom_site_type_symbol
_atom_site_fract_x
_atom_site_fract_y
_atom_site_fract_z
_atom_site_charge
  Ge     Ge        0.313819999999964    0.296860000000038    0.309830000000034  0.0000
  Ge     Ge        0.743043588223158    0.183095313180922    0.751605993646394  0.0000
  Ge     Ge        0.780055336007708    0.557076501659171    0.772742046414471  0.0000
  Ge     Ge        0.384446596913220    0.204033260881269    0.669063631612162  0.0000
  Ge     Ge        0.662112352909705    0.318021755526763    0.397773533835479  0.0000
  Ge     Ge        0.670407549955867    0.703408558140166    0.407197376280764  0.0000
  Ge     Ge        0.395382554177592    0.607040849403206    0.680393250655019  0.0000
  Ge     Ge        0.886900369524108    0.996969948432503    0.399996001058545  0.0000
  Ge     Ge        0.202094128274434    0.889663196096841    0.741128837373971  0.0000
  Ge     Ge        0.053712633592954    0.044975827774545    0.165590423801257  0.0000
  Ge     Ge        0.965400313912945    0.865960828228398    0.878624844484124  0.0000
  Si     Si        0.305416959578268    0.708247257599698    0.331526178238932  0.0000
  O1     O1        0.328936727779654    0.182246556762413    0.480824018990725  0.0000
  O1     O1        0.648803601957876    0.326800918495312    0.565389051905982  0.0000
  O1     O1        0.784394898450082    0.660369540167164    0.607535942148906  0.0000
  O3     O3        0.302202131377570    0.724718271965811    0.490293966587305  0.0000
  O3     O3        0.281095290507260    0.516279476463753    0.299732753856244  0.0000
  O1     O1        0.846095338900521    0.343350504814948    0.844704951575165  0.0000
  O1     O1        0.476339675612166    0.263338647195106    0.283146358504084  0.0000
  O1     O1        0.583795119376319    0.140593114591897    0.783595738100321  0.0000
  O1     O1        0.595876456856033    0.589030277749608    0.759256260253859  0.0000
  O3     O3        0.472530253221345    0.760359062169060    0.350935698142043  0.0000
  O1     O1        0.160068339103113    0.213992377457420    0.171995096739177  0.0000
  O1     O1        0.822166181656660    0.011980639143600    0.712009005334074  0.0000
  O1     O1        0.909158030518303    0.670783770050936    0.907724456857358  0.0000
  O3     O3        0.163149100776098    0.844306824363261    0.196140589917241  0.0000
  O1     O1        0.332395483100795    0.408683248404258    0.678879805369855  0.0000
  O1     O1        0.684851944571402    0.526098097281259    0.334726716296429  0.0000
  O1     O1        0.274168426588056    0.081453391820751    0.732720650800502  0.0000
  O1     O1        0.818883752494123    0.191036401638987    0.417473385198613  0.0000
  O1     O1        0.734989223731292    0.873682117479131    0.330784452526662  0.0000
  O1     O1        0.341343766342360    0.721093073663762    0.784400418242103  0.0000
  O1     O1        0.035216864686917    0.879874469570204    0.569997255548139  0.0000
  O1     O1        0.954469879960609    0.055692781397044    0.267030865722533  0.0000
  O1     O1        0.145137834661378    0.861377483306003    0.884420997931526  0.0000
  O1     O1        0.927568517952571    0.019809617706983    0.978166604096797  0.0000
