data_c00034.vasp
_audit_creation_method             Generated by GULP
_audit_author_name                 Salvador R. G. Balestra
_symmetry_space_group_name_H-M     'P 1             '
_symmetry_Int_Tables_number        1

loop_
_symmetry_equiv_pos_site_id
_symmetry_equiv_pos_as_xyz
_cell_length_a                        9.1180
_cell_length_b                        7.6873
_cell_length_c                       10.3979
_cell_angle_alpha                   87.6707
_cell_angle_beta                   108.7031
_cell_angle_gamma                   91.2052

loop_
_atom_site_label
_atom_site_type_symbol
_atom_site_fract_x
_atom_site_fract_y
_atom_site_fract_z
_atom_site_charge
  Ge     Ge        0.313819999999964    0.296860000000038    0.309830000000034  0.0000
  Ge     Ge        0.317485754062165    0.669962467798549    0.632996139141760  0.0000
  Ge     Ge        0.875984060873436    0.023561611197131    0.351093743958188  0.0000
  Si     Si        0.695302299427558    0.302240423677381    0.701612337832917  0.0000
  Si     Si        0.682615768455124    0.703033016266728    0.707356833062568  0.0000
  Si     Si        0.291629106727670    0.699281909660052    0.318030406788322  0.0000
  Si     Si        0.333131566632940    0.270787306866887    0.621970878958499  0.0000
  Si     Si        0.677650623315313    0.325269924339141    0.399296470330513  0.0000
  Si     Si        0.649142967024187    0.729220783634816    0.400033649009763  0.0000
  Si     Si        0.117019406747479    0.973289181418484    0.655193955359574  0.0000
  Si     Si        0.080439661894647    0.005955638580169    0.155834748737018  0.0000
  Si     Si        0.905552757020720    0.997805466327380    0.842330397492271  0.0000
  O3     O3        0.271407285281971    0.262190091646220    0.459304957974675  0.0000
  O2     O2        0.733896329994146    0.286001918916100    0.562133517333567  0.0000
  O2     O2        0.708623702591224    0.750153169112236    0.563006611531255  0.0000
  O3     O3        0.256101936332946    0.692429791947252    0.458773431343187  0.0000
  O3     O3        0.274881545056701    0.511202949778632    0.255937499791263  0.0000
  O2     O2        0.723013399876829    0.500246447053375    0.750715928472271  0.0000
  O3     O3        0.505017450091761    0.252276042907392    0.333453696654536  0.0000
  O2     O2        0.518048449188738    0.245945728868488    0.673824870910143  0.0000
  O3     O3        0.507999835182814    0.736383418031261    0.698885152879003  0.0000
  O2     O2        0.467013991589789    0.769795407280647    0.345092933874514  0.0000
  O3     O3        0.195953306033877    0.169209514644418    0.188069964697603  0.0000
  O2     O2        0.802673895008812    0.172086029061788    0.815859545464086  0.0000
  O2     O2        0.797338635981750    0.825654406513513    0.817513739433146  0.0000
  O2     O2        0.173397651261254    0.830684314256069    0.216229186764142  0.0000
  O3     O3        0.296147094758594    0.453289349899116    0.672270833203068  0.0000
  O2     O2        0.678982494494097    0.532096775840089    0.367060028982575  0.0000
  O2     O2        0.254223752652304    0.117774723743624    0.686456237636362  0.0000
  O3     O3        0.795602815658176    0.227111497582396    0.344654284794330  0.0000
  O3     O3        0.736396228175512    0.862113379997865    0.329866840106385  0.0000
  O3     O3        0.199487361586342    0.788009320903175    0.695717208081670  0.0000
  O3     O3        0.026016171240397    0.981178064792491    0.495799700007189  0.0000
  O3     O3        0.939286304310764    0.027984156766908    0.212614392346008  0.0000
  O2     O2        0.006926988496717    0.007770948105694    0.742349135893968  0.0000
  O2     O2        0.016497093639186    0.989624698352818    0.994662224315083  0.0000
