data_c00035.vasp
_audit_creation_method             Generated by GULP
_audit_author_name                 Salvador R. G. Balestra
_symmetry_space_group_name_H-M     'P 1             '
_symmetry_Int_Tables_number        1

loop_
_symmetry_equiv_pos_site_id
_symmetry_equiv_pos_as_xyz
_cell_length_a                        9.1521
_cell_length_b                        7.6850
_cell_length_c                       10.2823
_cell_angle_alpha                   89.3778
_cell_angle_beta                   109.4798
_cell_angle_gamma                   89.6119

loop_
_atom_site_label
_atom_site_type_symbol
_atom_site_fract_x
_atom_site_fract_y
_atom_site_fract_z
_atom_site_charge
  Ge     Ge        0.313819999999964    0.296860000000038    0.309830000000034  0.0000
  Ge     Ge        0.369205644179778    0.703078397941056    0.633157670371919  0.0000
  Ge     Ge        0.145088367593454    0.997872451757857    0.686601665858187  0.0000
  Si     Si        0.701185965181977    0.274981447411714    0.700628553383117  0.0000
  Si     Si        0.726687392166672    0.668298698398575    0.711782861044496  0.0000
  Si     Si        0.330246341426940    0.709786736974507    0.318581504598620  0.0000
  Si     Si        0.344432826973752    0.294390174057457    0.621346739674395  0.0000
  Si     Si        0.674893595292314    0.283134844070296    0.386466042346276  0.0000
  Si     Si        0.683448860990018    0.678662558251971    0.393179153266187  0.0000
  Si     Si        0.893717813918466    0.981929688005792    0.377820962656852  0.0000
  Si     Si        0.093413710403736    0.996520452852253    0.177677940658321  0.0000
  Si     Si        0.927383583127491    0.975877631071664    0.863539863755319  0.0000
  O3     O3        0.311340158522332    0.222275725057248    0.468106203573446  0.0000
  O2     O2        0.695467660863843    0.238851749570694    0.545438946931683  0.0000
  O2     O2        0.707109790779723    0.709597330229423    0.553020650234571  0.0000
  O3     O3        0.337712043908444    0.779323919720498    0.467178268533492  0.0000
  O3     O3        0.266850266492927    0.515512502744470    0.292548967449508  0.0000
  O2     O2        0.774441159636013    0.464984779818786    0.747283700381145  0.0000
  O3     O3        0.496237567042357    0.264334835277749    0.297332902035935  0.0000
  O2     O2        0.528114638213768    0.272179276134207    0.706312277480190  0.0000
  O3     O3        0.563696220395463    0.707660593779004    0.730610983425339  0.0000
  O2     O2        0.502806284895116    0.711656240862185    0.306853760406353  0.0000
  O3     O3        0.177809313892437    0.179896897951927    0.186805145977607  0.0000
  O2     O2        0.799575389776121    0.126289332160234    0.801032370468504  0.0000
  O2     O2        0.861132626808727    0.786386315536463    0.809034402177723  0.0000
  O2     O2        0.222014991278115    0.842960316907330    0.204986783493106  0.0000
  O3     O3        0.298368722784471    0.494866912017240    0.616316028980518  0.0000
  O2     O2        0.729849586515083    0.480447501451144    0.371725352943302  0.0000
  O3     O3        0.245021365081494    0.188172864505181    0.694001279370851  0.0000
  O2     O2        0.783988504979559    0.153668298837137    0.337569937201903  0.0000
  O2     O2        0.788629290794263    0.809006551340322    0.340939890504723  0.0000
  O1     O1        0.269948335043834    0.825551424551178    0.711841683802643  0.0000
  O3     O3        0.989304085807597    0.977374746208991    0.538218485801385  0.0000
  O2     O2        0.007339197529340    0.982968107979691    0.289907016446863  0.0000
  O3     O3        0.078197516457685    0.010264183143851    0.824238252507971  0.0000
  O2     O2        0.967711907792134    0.975266672578736    0.027562170625687  0.0000
