data_c00027.vasp
_audit_creation_method             Generated by GULP
_audit_author_name                 Salvador R. G. Balestra
_symmetry_space_group_name_H-M     'P 1             '
_symmetry_Int_Tables_number        1

loop_
_symmetry_equiv_pos_site_id
_symmetry_equiv_pos_as_xyz
_cell_length_a                        9.0074
_cell_length_b                        7.6868
_cell_length_c                       10.4023
_cell_angle_alpha                   87.6094
_cell_angle_beta                   108.3488
_cell_angle_gamma                   89.9688

loop_
_atom_site_label
_atom_site_type_symbol
_atom_site_fract_x
_atom_site_fract_y
_atom_site_fract_z
_atom_site_charge
  Ge     Ge        0.313819999999964    0.296860000000038    0.309830000000034  0.0000
  Ge     Ge        0.690643767957033    0.273683251792938    0.400990363094524  0.0000
  Ge     Ge        0.105628517248359    0.984192824763164    0.165581406208100  0.0000
  Si     Si        0.701178371271928    0.243914619438366    0.712136760992199  0.0000
  Si     Si        0.710953577425830    0.643804039255102    0.724655119704784  0.0000
  Si     Si        0.334703786663394    0.689483948512994    0.336710267841839  0.0000
  Si     Si        0.341230244887459    0.259003395832265    0.625153190114686  0.0000
  Si     Si        0.698957649694592    0.666547502340177    0.423944795131965  0.0000
  Si     Si        0.350522908070504    0.658018294223462    0.639061925341540  0.0000
  Si     Si        0.895548781149795    0.967809235568604    0.357843621988720  0.0000
  Si     Si        0.134542319587900    0.953359627307805    0.655014557758178  0.0000
  Si     Si        0.925017563799108    0.940376036257273    0.849865977477044  0.0000
  O3     O3        0.314969597946950    0.223194579195255    0.470029571365249  0.0000
  O3     O3        0.708900292883781    0.202604664097634    0.565455349926815  0.0000
  O2     O2        0.727512567395726    0.707907203780275    0.580557488609960  0.0000
  O2     O2        0.323556784643385    0.725914556772431    0.485218182011770  0.0000
  O3     O3        0.249946626486919    0.512021968980903    0.283325201193600  0.0000
  O2     O2        0.758811462256052    0.439957114301199    0.753127807659926  0.0000
  O1     O1        0.499602914628163    0.262057568236503    0.302520762828307  0.0000
  O2     O2        0.522647296572628    0.224996502833060    0.711541498429887  0.0000
  O2     O2        0.533395064251718    0.671238040710544    0.725283318798376  0.0000
  O2     O2        0.514335650674394    0.647685388011046    0.349058093466033  0.0000
  O1     O1        0.172900762594041    0.190556567900915    0.190588356040233  0.0000
  O2     O2        0.809030644943895    0.107966621175827    0.824605738517868  0.0000
  O2     O2        0.825511453250745    0.762368445751588    0.836186428168486  0.0000
  O3     O3        0.270170241646876    0.854438748244404    0.240603326699082  0.0000
  O2     O2        0.294799097920175    0.458612331502294    0.642832383515040  0.0000
  O3     O3        0.768620496105058    0.481503557724162    0.408846951269047  0.0000
  O2     O2        0.235306922817756    0.129333957180616    0.683689475811945  0.0000
  O3     O3        0.812583867474952    0.154504980131612    0.339230571746901  0.0000
  O2     O2        0.765089263116070    0.823552584396812    0.354457467195063  0.0000
  O2     O2        0.248219623568115    0.782876201935064    0.699941583230308  0.0000
  O2     O2        0.038373331063771    0.949303886016715    0.496875643546767  0.0000
  O3     O3        0.958560791620802    0.937753901430531    0.233770386169000  0.0000
  O2     O2        0.019415567279824    0.951368226201505    0.742923583174235  0.0000
  O3     O3        0.045059302702441    0.939358529325027    0.997523868045253  0.0000
