data_c00025.vasp
_audit_creation_method             Generated by GULP
_audit_author_name                 Salvador R. G. Balestra
_symmetry_space_group_name_H-M     'P 1             '
_symmetry_Int_Tables_number        1

loop_
_symmetry_equiv_pos_site_id
_symmetry_equiv_pos_as_xyz
_cell_length_a                        9.0020
_cell_length_b                        7.6754
_cell_length_c                       10.5527
_cell_angle_alpha                   87.0712
_cell_angle_beta                   109.9840
_cell_angle_gamma                   90.9557

loop_
_atom_site_label
_atom_site_type_symbol
_atom_site_fract_x
_atom_site_fract_y
_atom_site_fract_z
_atom_site_charge
  Ge     Ge        0.313819999999964    0.296860000000038    0.309830000000034  0.0000
  Ge     Ge        0.694753986394639    0.304438657192613    0.396257749819374  0.0000
  Ge     Ge        0.895850214166737    0.989764383130666    0.361466108223336  0.0000
  Si     Si        0.713678168540098    0.258667559559358    0.703875300883844  0.0000
  Si     Si        0.714795497602738    0.660858101634026    0.717066834197018  0.0000
  Si     Si        0.315692342674747    0.687508714078845    0.337126953098054  0.0000
  Si     Si        0.349482573650884    0.256484318272389    0.623070444142438  0.0000
  Si     Si        0.684832505619664    0.696390676437482    0.418188246749368  0.0000
  Si     Si        0.349123831308983    0.656451528996528    0.637566589657603  0.0000
  Si     Si        0.144318923398380    0.948042165078283    0.669505983806277  0.0000
  Si     Si        0.103772899714393    0.987464681883155    0.170122734183286  0.0000
  Si     Si        0.935720518094791    0.953050338890572    0.856921002759078  0.0000
  O3     O3        0.310675256170827    0.222618025996450    0.467058236604686  0.0000
  O3     O3        0.720019009769298    0.221890284995496    0.558763325933747  0.0000
  O2     O2        0.729863164359746    0.735909782148491    0.576458765882615  0.0000
  O2     O2        0.300488392701586    0.724848667060036    0.481461496588635  0.0000
  O3     O3        0.236756689841598    0.507317131789163    0.281206671578640  0.0000
  O2     O2        0.766109586788124    0.457872341063328    0.742362969261085  0.0000
  O1     O1        0.498662105220627    0.276226674781864    0.301561095864365  0.0000
  O2     O2        0.535547010629274    0.228265329303542    0.702848604027676  0.0000
  O2     O2        0.535964991543434    0.679707961727559    0.714702346976666  0.0000
  O2     O2        0.498731288953414    0.651372252781069    0.358602744340063  0.0000
  O3     O3        0.172973837234012    0.179825524939388    0.191621817043814  0.0000
  O2     O2        0.827931474195700    0.126034937158351    0.815547180492938  0.0000
  O2     O2        0.829121023890699    0.778086741254285    0.832272339191136  0.0000
  O2     O2        0.250908469204628    0.854793316785283    0.238757901207098  0.0000
  O2     O2        0.301601489808671    0.453268167480871    0.643338826288397  0.0000
  O3     O3        0.762522659675897    0.516753060630150    0.402047721656814  0.0000
  O2     O2        0.249636292550608    0.122895488254352    0.683707703890598  0.0000
  O1     O1        0.821986987267042    0.195796262113423    0.339597026259076  0.0000
  O3     O3        0.731379828029222    0.855968362079666    0.340001425607329  0.0000
  O2     O2        0.255016118966466    0.774649219189598    0.706190342391947  0.0000
  O3     O3        0.022923556724758    0.936223188462297    0.520388963012310  0.0000
  O3     O3        0.972570894692053    0.949087826978110    0.238652531365966  0.0000
  O2     O2        0.059675302773365    0.953348882066030    0.779147867728117  0.0000
  O2     O2        0.031826803358872    0.951606585360584    0.013960340458824  0.0000
