data_c00042.vasp
_audit_creation_method             Generated by GULP
_audit_author_name                 Salvador R. G. Balestra
_symmetry_space_group_name_H-M     'P 1             '
_symmetry_Int_Tables_number        1

loop_
_symmetry_equiv_pos_site_id
_symmetry_equiv_pos_as_xyz
_cell_length_a                        9.1106
_cell_length_b                        7.6727
_cell_length_c                       10.3451
_cell_angle_alpha                   89.6999
_cell_angle_beta                   108.8761
_cell_angle_gamma                   88.7305

loop_
_atom_site_label
_atom_site_type_symbol
_atom_site_fract_x
_atom_site_fract_y
_atom_site_fract_z
_atom_site_charge
  Ge     Ge        0.313819999999964    0.296860000000038    0.309830000000034  0.0000
  Ge     Ge        0.152374230240004    0.988171498171756    0.686097559649198  0.0000
  Ge     Ge        0.933751903490189    0.947885115733117    0.872075511438057  0.0000
  Si     Si        0.693063607767413    0.246669803723720    0.700284987766098  0.0000
  Si     Si        0.731593115496583    0.642505416841769    0.714644547980292  0.0000
  Si     Si        0.344984968503884    0.703828330723881    0.325851555799944  0.0000
  Si     Si        0.339019337305617    0.293850672707213    0.622764455485537  0.0000
  Si     Si        0.676083088806722    0.260221036443248    0.391236932221013  0.0000
  Si     Si        0.702414823695789    0.657386757982586    0.405540858556762  0.0000
  Si     Si        0.375923427133228    0.694047010464931    0.633879843964721  0.0000
  Si     Si        0.902971598669659    0.961099920287681    0.386762467006816  0.0000
  Si     Si        0.103525287202619    0.990561245817299    0.189254769283584  0.0000
  O3     O3        0.301638385195886    0.237717246182138    0.466702353681756  0.0000
  O2     O2        0.691207301468950    0.209783480030201    0.546655774589238  0.0000
  O2     O2        0.741070703240017    0.692876984850992    0.565971207508565  0.0000
  O2     O2        0.342624719756541    0.753198838584872    0.476822411153676  0.0000
  O3     O3        0.273538532719259    0.517026047664868    0.280964525282565  0.0000
  O2     O2        0.764367370245132    0.436515165656507    0.743951707827970  0.0000
  O3     O3        0.497716366491101    0.251924203634983    0.301188579530622  0.0000
  O2     O2        0.518217359707689    0.243721481316783    0.704324240338994  0.0000
  O2     O2        0.559238723030412    0.694008319632436    0.716117520454745  0.0000
  O2     O2        0.522026810252875    0.701985628000814    0.325488185053357  0.0000
  O3     O3        0.175940152153770    0.179704925428039    0.191115464775545  0.0000
  O3     O3        0.790962145616366    0.103344756416242    0.802869977504281  0.0000
  O3     O3        0.860453342720824    0.743025064712502    0.826714105071773  0.0000
  O2     O2        0.248118561232748    0.851482363558276    0.220711087402815  0.0000
  O2     O2        0.310030660997783    0.500529629636179    0.633099851737962  0.0000
  O2     O2        0.737969810590467    0.455246039571792    0.381862886725574  0.0000
  O3     O3        0.228879627105295    0.191715706617717    0.686371296057007  0.0000
  O2     O2        0.783377730711894    0.126439069895232    0.340627811885274  0.0000
  O2     O2        0.808422711125634    0.781418284554498    0.348760125450986  0.0000
  O3     O3        0.291003298479614    0.825182342982053    0.704692573834117  0.0000
  O3     O3        0.989192837156257    0.962135665674490    0.547638641126014  0.0000
  O2     O2        0.026060492263158    0.970219956863978    0.307739211278525  0.0000
  O1     O1        0.094977594956382    0.979437028481437    0.827777840533572  0.0000
  O3     O3        0.977279971891420    0.956724214917402    0.046563562359606  0.0000
