data_c00030.vasp
_audit_creation_method             Generated by GULP
_audit_author_name                 Salvador R. G. Balestra
_symmetry_space_group_name_H-M     'P 1             '
_symmetry_Int_Tables_number        1

loop_
_symmetry_equiv_pos_site_id
_symmetry_equiv_pos_as_xyz
_cell_length_a                        9.0071
_cell_length_b                        7.6019
_cell_length_c                       10.4439
_cell_angle_alpha                   87.4898
_cell_angle_beta                   108.4991
_cell_angle_gamma                   91.8637

loop_
_atom_site_label
_atom_site_type_symbol
_atom_site_fract_x
_atom_site_fract_y
_atom_site_fract_z
_atom_site_charge
  Ge     Ge        0.313819999999964    0.296860000000038    0.309830000000034  0.0000
  Ge     Ge        0.632494405106766    0.773996373176523    0.387117656209461  0.0000
  Ge     Ge        0.881178066118689    0.067038019810853    0.363490246015935  0.0000
  Si     Si        0.690428408864786    0.337748039835735    0.698861036719892  0.0000
  Si     Si        0.662769740429402    0.735236140935084    0.697903308559537  0.0000
  Si     Si        0.270647665253307    0.710277337084596    0.310513707213996  0.0000
  Si     Si        0.328454930434948    0.284231027638554    0.618395881607216  0.0000
  Si     Si        0.674210973230954    0.365300559430871    0.394076468634818  0.0000
  Si     Si        0.298975572555138    0.685800234414032    0.615582724612241  0.0000
  Si     Si        0.109510621983034    0.985587283694824    0.668460033628962  0.0000
  Si     Si        0.077449506664241    0.020729836511238    0.159035483099902  0.0000
  Si     Si        0.893951645132550    0.022328609932984    0.848015694399975  0.0000
  O3     O3        0.269616259174744    0.254385454240346    0.458835470458602  0.0000
  O2     O2        0.722745163317815    0.350148203780334    0.557192717959432  0.0000
  O3     O3        0.701248174585099    0.784401108967594    0.561605962869908  0.0000
  O2     O2        0.235033371048970    0.709446896754355    0.453376139921078  0.0000
  O3     O3        0.272078526458514    0.515439000987634    0.261953215906847  0.0000
  O2     O2        0.708723499320291    0.535317138139861    0.753914790023851  0.0000
  O3     O3        0.509247219153199    0.261580385140634    0.338062165279856  0.0000
  O2     O2        0.515416225959291    0.260403214383040    0.678335867288579  0.0000
  O2     O2        0.477612292686056    0.756221487791933    0.670715193745391  0.0000
  O3     O3        0.434236889691199    0.812384725828841    0.330899186643797  0.0000
  O3     O3        0.219655449480021    0.160271904356154    0.180739141802491  0.0000
  O2     O2        0.816498021740921    0.211889145288725    0.800928196403823  0.0000
  O2     O2        0.761809073910966    0.868899036714908    0.809761370773149  0.0000
  O2     O2        0.135110917937295    0.821718092013025    0.202295983131299  0.0000
  O2     O2        0.286346332871776    0.478802846910878    0.652401718353055  0.0000
  O3     O3        0.657065693078702    0.564452246799243    0.340968591449474  0.0000
  O2     O2        0.239514421436537    0.142201025016738    0.687461719830982  0.0000
  O3     O3        0.807461942204583    0.275920171725389    0.352731992397150  0.0000
  O1     O1        0.729111799761039    0.917414246967926    0.312266960053944  0.0000
  O2     O2        0.193652973645007    0.797271808298079    0.679948648312151  0.0000
  O3     O3        0.975153376066163    0.001510000184965    0.527853124894011  0.0000
  O3     O3        0.992195237844253    0.089259250846988    0.259980324145029  0.0000
  O2     O2        0.035333340501251    0.991008248157571    0.789267751477183  0.0000
  O2     O2        0.961863310967164    0.020594184468928    0.008517256325417  0.0000
