data_c00057.vasp
_audit_creation_method             Generated by GULP
_audit_author_name                 Salvador R. G. Balestra
_symmetry_space_group_name_H-M     'P 1             '
_symmetry_Int_Tables_number        1

loop_
_symmetry_equiv_pos_site_id
_symmetry_equiv_pos_as_xyz
_cell_length_a                        9.0717
_cell_length_b                        7.6500
_cell_length_c                       10.3526
_cell_angle_alpha                   91.6777
_cell_angle_beta                   108.8146
_cell_angle_gamma                   87.8031

loop_
_atom_site_label
_atom_site_type_symbol
_atom_site_fract_x
_atom_site_fract_y
_atom_site_fract_z
_atom_site_charge
  Ge     Ge        0.331050000000005    0.296920000000000    0.607380000000035  0.0000
  Ge     Ge        0.144971310570532    0.984491783968050    0.661970242217608  0.0000
  Ge     Ge        0.936566622563316    0.934755294788599    0.853554653796636  0.0000
  Si     Si        0.317067515119721    0.262679959850378    0.294315489256195  0.0000
  Si     Si        0.693300267296232    0.231677364427298    0.686344537668378  0.0000
  Si     Si        0.734256767333279    0.627663000061432    0.688335291886861  0.0000
  Si     Si        0.347251247536994    0.661292536152508    0.296267226286918  0.0000
  Si     Si        0.673603584045229    0.219182760687633    0.377699902828971  0.0000
  Si     Si        0.703544887906413    0.617516265232353    0.379025743968562  0.0000
  Si     Si        0.378408449215729    0.695849482917310    0.608340164209587  0.0000
  Si     Si        0.901828879438701    0.918872878279679    0.364774094693446  0.0000
  Si     Si        0.108672073755956    0.954565874692394    0.172641215341592  0.0000
  O3     O3        0.302439947535331    0.231215316977676    0.440448737899401  0.0000
  O2     O2        0.693692365808551    0.177478088101518    0.534046248192374  0.0000
  O2     O2        0.738720607710250    0.667738781273354    0.537579633350854  0.0000
  O2     O2        0.347160731397856    0.716132135220053    0.446873406660089  0.0000
  O2     O2        0.280766779939636    0.467002984586047    0.255798907553857  0.0000
  O2     O2        0.766908382896361    0.422984656475489    0.720330547963264  0.0000
  O2     O2        0.491099237582747    0.211154058139398    0.291486379731400  0.0000
  O3     O3        0.521644198039708    0.237986884281744    0.696474316680362  0.0000
  O2     O2        0.562042292861209    0.682911855153942    0.691084359196705  0.0000
  O2     O2        0.523952115887896    0.664404088324357    0.293151916168926  0.0000
  O2     O2        0.193403972121758    0.140099718721562    0.186502140701383  0.0000
  O3     O3        0.796646459538502    0.095436630024072    0.791472516033449  0.0000
  O3     O3        0.863840135117050    0.730732747008202    0.799656616000724  0.0000
  O2     O2        0.238967345301251    0.797934142549361    0.189338709682493  0.0000
  O3     O3        0.299582119362556    0.518539514542271    0.626541829440466  0.0000
  O2     O2        0.737416742719355    0.410466628276051    0.363123975936380  0.0000
  O1     O1        0.196971661744329    0.196646011012879    0.659151078778857  0.0000
  O2     O2        0.772203228114091    0.076691951632705    0.320488803285693  0.0000
  O2     O2        0.816048283896438    0.732580560294842    0.324398654719642  0.0000
  O3     O3        0.309997813710340    0.861151671640763    0.666819424987568  0.0000
  O3     O3        0.986429962357694    0.927410065061559    0.525737420852936  0.0000
  O2     O2        0.027435165148296    0.936353918872301    0.288481710620838  0.0000
  O1     O1        0.097688959566628    0.960625287109162    0.806957607417082  0.0000
  O3     O3        0.980624283181966    0.941705383162468    0.028039705534731  0.0000
