data_c00010.vasp
_audit_creation_method             Generated by GULP
_audit_author_name                 Salvador R. G. Balestra
_symmetry_space_group_name_H-M     'P 1             '
_symmetry_Int_Tables_number        1

loop_
_symmetry_equiv_pos_site_id
_symmetry_equiv_pos_as_xyz
_cell_length_a                        9.0267
_cell_length_b                        7.6756
_cell_length_c                       10.1779
_cell_angle_alpha                   88.7545
_cell_angle_beta                   107.7894
_cell_angle_gamma                   91.1332

loop_
_atom_site_label
_atom_site_type_symbol
_atom_site_fract_x
_atom_site_fract_y
_atom_site_fract_z
_atom_site_charge
  Ge     Ge        0.313819999999964    0.296860000000038    0.309830000000034  0.0000
  Ge     Ge        0.283926466090575    0.717422524090618    0.304840153104636  0.0000
  Ge     Ge        0.335609596416330    0.294124755659644    0.631141519522123  0.0000
  Si     Si        0.688740281388330    0.346635751409948    0.708340405837745  0.0000
  Si     Si        0.664863770270335    0.736850956791419    0.700932665955203  0.0000
  Si     Si        0.667664496090537    0.356138116965005    0.391168475978363  0.0000
  Si     Si        0.649466762973009    0.751866618794951    0.387485649366219  0.0000
  Si     Si        0.305897111616659    0.704238685172436    0.617666064595916  0.0000
  Si     Si        0.881364488145205    0.049973306370594    0.379990453384736  0.0000
  Si     Si        0.116765839906759    0.998759041727209    0.682571846309018  0.0000
  Si     Si        0.068770205961267    0.019033268976955    0.164079363787917  0.0000
  Si     Si        0.888703353296918    0.031541358224305    0.851864116279728  0.0000
  O1     O1        0.314120918344680    0.219588766126479    0.469372087328838  0.0000
  O2     O2        0.649748687411999    0.327579481094713    0.543536852168463  0.0000
  O2     O2        0.667291434153513    0.787440626355979    0.547447403223331  0.0000
  O3     O3        0.278028911609171    0.781045862532703    0.464905953329874  0.0000
  O1     O1        0.240515461218501    0.502571854649595    0.281887870603810  0.0000
  O2     O2        0.741585180081050    0.547232070372184    0.748209671590558  0.0000
  O3     O3        0.499363426854296    0.308101049132770    0.291442119556957  0.0000
  O3     O3        0.527621958150634    0.299239845959280    0.735545446283346  0.0000
  O2     O2        0.488295652840539    0.726993967391932    0.704120815321439  0.0000
  O3     O3        0.470996474084572    0.765351391365909    0.298305118651416  0.0000
  O3     O3        0.207218144980448    0.158831929869824    0.184273504293659  0.0000
  O2     O2        0.825999843132339    0.221102525372051    0.791930860002741  0.0000
  O2     O2        0.754966095441595    0.884296714038775    0.804773901825382  0.0000
  O3     O3        0.143363448546060    0.829890915910248    0.181701461428736  0.0000
  O3     O3        0.260192254726424    0.502571021019056    0.614213989259692  0.0000
  O2     O2        0.711386537498745    0.558767717167772    0.371141763879283  0.0000
  O3     O3        0.235807249381885    0.159352371754453    0.712648386235234  0.0000
  O2     O2        0.799972041665493    0.237343492406185    0.366307671802994  0.0000
  O2     O2        0.753906710131802    0.894350929641797    0.336827116468311  0.0000
  O2     O2        0.205167637478972    0.816832352182459    0.689972503891364  0.0000
  O2     O2        0.986537843712542    0.024511002197708    0.536058480272626  0.0000
  O2     O2        0.985876333026867    0.056555913888695    0.279768629910214  0.0000
  O2     O2        0.035076762512257    0.984728627127797    0.802079297864229  0.0000
  O2     O2        0.940386219643891    0.038964293885169    0.016174202693326  0.0000
