data_c00007.vasp
_audit_creation_method             Generated by GULP
_audit_author_name                 Salvador R. G. Balestra
_symmetry_space_group_name_H-M     'P 1             '
_symmetry_Int_Tables_number        1

loop_
_symmetry_equiv_pos_site_id
_symmetry_equiv_pos_as_xyz
_cell_length_a                        9.0674
_cell_length_b                        7.6778
_cell_length_c                       10.3033
_cell_angle_alpha                   87.0639
_cell_angle_beta                   108.7614
_cell_angle_gamma                   89.6574

loop_
_atom_site_label
_atom_site_type_symbol
_atom_site_fract_x
_atom_site_fract_y
_atom_site_fract_z
_atom_site_charge
  Ge     Ge        0.313819999999964    0.296860000000038    0.309830000000034  0.0000
  Ge     Ge        0.721552814326611    0.636364959641119    0.730349640809894  0.0000
  Ge     Ge        0.687544043410377    0.267724974676852    0.397753188950561  0.0000
  Si     Si        0.704920850097862    0.228985286098376    0.709699958422013  0.0000
  Si     Si        0.343006700041004    0.692922293000648    0.337197976725087  0.0000
  Si     Si        0.345451027380321    0.257761252311178    0.629087227148237  0.0000
  Si     Si        0.702843341362391    0.669196422515354    0.419921334531826  0.0000
  Si     Si        0.358789746977169    0.653575150319984    0.646947394902086  0.0000
  Si     Si        0.900892923570034    0.969075516407559    0.358849980094224  0.0000
  Si     Si        0.140636228327210    0.953971369035249    0.663185834686733  0.0000
  Si     Si        0.113665316167799    0.990335625712213    0.173989965311636  0.0000
  Si     Si        0.936726977555725    0.932247163107652    0.863139022374302  0.0000
  O3     O3        0.315136058910389    0.223440619725335    0.471493289403807  0.0000
  O3     O3        0.703870437232899    0.181264068156756    0.560124051864540  0.0000
  O3     O3        0.728299665114058    0.721276282359462    0.573889710496738  0.0000
  O2     O2        0.350879637176822    0.716918146343982    0.493495742834072  0.0000
  O3     O3        0.258710994240336    0.516262167373507    0.283663809305195  0.0000
  O3     O3        0.773700628239388    0.418190185599525    0.746560754281121  0.0000
  O1     O1        0.496197530240710    0.267204120239318    0.298040454090685  0.0000
  O2     O2        0.527971676650136    0.229147583912241    0.712940002549092  0.0000
  O3     O3        0.536432449492437    0.660906678435651    0.742264873782582  0.0000
  O2     O2        0.518742671199234    0.673700110175433    0.334027103105614  0.0000
  O3     O3        0.172855721882808    0.185569995146400    0.191640379864839  0.0000
  O2     O2        0.802578624385750    0.082879077618985    0.821597220558746  0.0000
  O3     O3        0.855135562648325    0.747433234317008    0.854297576911449  0.0000
  O2     O2        0.263525685117608    0.863715158249142    0.246098439440904  0.0000
  O2     O2        0.296534532958413    0.456151811586138    0.646976512787621  0.0000
  O3     O3        0.763094792267610    0.474924425408175    0.415217071527054  0.0000
  O2     O2        0.246455496066623    0.124725810944017    0.691818270235941  0.0000
  O3     O3        0.801512079180458    0.147015730762017    0.329322328163211  0.0000
  O2     O2        0.787834702536620    0.806309139272165    0.347370279560145  0.0000
  O2     O2        0.247972136658687    0.778420305478626    0.697265781798887  0.0000
  O2     O2        0.031611641737536    0.964652490642680    0.506713810242012  0.0000
  O2     O2        0.979988728115260    0.952034718475386    0.241818392621528  0.0000
  O2     O2        0.039521320002338    0.949786849580032    0.763156901668122  0.0000
  O2     O2        0.049167118080329    0.952852479349672    0.015546326935496  0.0000
