data_c00017.vasp
_audit_creation_method             Generated by GULP
_audit_author_name                 Salvador R. G. Balestra
_symmetry_space_group_name_H-M     'P 1             '
_symmetry_Int_Tables_number        1

loop_
_symmetry_equiv_pos_site_id
_symmetry_equiv_pos_as_xyz
_cell_length_a                        9.1217
_cell_length_b                        7.7174
_cell_length_c                       10.0680
_cell_angle_alpha                   86.8013
_cell_angle_beta                   108.8900
_cell_angle_gamma                   89.6755

loop_
_atom_site_label
_atom_site_type_symbol
_atom_site_fract_x
_atom_site_fract_y
_atom_site_fract_z
_atom_site_charge
  Ge     Ge        0.313819999999964    0.296860000000038    0.309830000000034  0.0000
  Ge     Ge        0.338514145499131    0.271295915468834    0.637970764700576  0.0000
  Ge     Ge        0.664544519273869    0.719828173257247    0.394729656065802  0.0000
  Si     Si        0.687735260244376    0.297554461626228    0.710044135271445  0.0000
  Si     Si        0.698083552685187    0.682338618740942    0.721511681399922  0.0000
  Si     Si        0.300869019356087    0.709780968127589    0.318102329137898  0.0000
  Si     Si        0.662697632972438    0.325193532383829    0.389990795849486  0.0000
  Si     Si        0.338004035840202    0.678114531342027    0.637216043052276  0.0000
  Si     Si        0.888272206929449    0.016926260496321    0.384207063928541  0.0000
  Si     Si        0.133451909418070    0.967202245599200    0.689102357052028  0.0000
  Si     Si        0.077776386167754    0.021053568218933    0.173341910888335  0.0000
  Si     Si        0.906442917609154    0.977937833702463    0.856431525899979  0.0000
  O1     O1        0.306155585841218    0.214953582232565    0.469202835643963  0.0000
  O2     O2        0.628078699635417    0.330770496159798    0.539636881422932  0.0000
  O3     O3        0.712199617517890    0.746715109271419    0.572500128975141  0.0000
  O2     O2        0.305542773902366    0.745319557483696    0.475840071951174  0.0000
  O3     O3        0.258022692973471    0.513503706282838    0.285002934172479  0.0000
  O2     O2        0.758513167929498    0.482048953017171    0.768727435650311  0.0000
  O3     O3        0.495407962978376    0.277699560303212    0.288378018127742  0.0000
  O3     O3        0.532536103094968    0.247214228835637    0.742050163364337  0.0000
  O2     O2        0.520995090046693    0.689315911941707    0.718622016950843  0.0000
  O3     O3        0.468971093978826    0.752573991985950    0.308445268231970  0.0000
  O3     O3        0.193243178561960    0.176953492432616    0.181039594980468  0.0000
  O2     O2        0.817207790254544    0.147078075473050    0.763972466717079  0.0000
  O2     O2        0.798176320375281    0.810837181356005    0.834922126301598  0.0000
  O2     O2        0.171327901235872    0.837674561696685    0.211916942750423  0.0000
  O3     O3        0.281382574952877    0.484420371998734    0.643263961938723  0.0000
  O3     O3        0.714439209546228    0.515793467668094    0.357928811819614  0.0000
  O3     O3        0.224985923718813    0.143860300543661    0.708624331404906  0.0000
  O2     O2        0.798007032723405    0.192311670229090    0.394640420555249  0.0000
  O3     O3        0.767328545279649    0.867847957071129    0.329018107660732  0.0000
  O2     O2        0.252564235187501    0.805358068026319    0.710309716082216  0.0000
  O2     O2        0.002988813574743    0.959722563341447    0.537929737301665  0.0000
  O2     O2        0.982326594607264    0.058569635986007    0.278177165656737  0.0000
  O2     O2        0.056502198348003    0.940743903197335    0.811357840400089  0.0000
  O2     O2        0.955078261349013    0.017003261949770    0.018537578740521  0.0000
