data_c00029.vasp
_audit_creation_method             Generated by GULP
_audit_author_name                 Salvador R. G. Balestra
_symmetry_space_group_name_H-M     'P 1             '
_symmetry_Int_Tables_number        1

loop_
_symmetry_equiv_pos_site_id
_symmetry_equiv_pos_as_xyz
_cell_length_a                        9.0100
_cell_length_b                        7.6464
_cell_length_c                       10.2622
_cell_angle_alpha                   87.2275
_cell_angle_beta                   107.5665
_cell_angle_gamma                   91.9794

loop_
_atom_site_label
_atom_site_type_symbol
_atom_site_fract_x
_atom_site_fract_y
_atom_site_fract_z
_atom_site_charge
  Ge     Ge        0.313819999999964    0.296860000000038    0.309830000000034  0.0000
  Ge     Ge        0.646205656637933    0.752620862352537    0.397417712131814  0.0000
  Ge     Ge        0.292487164421642    0.672858315607606    0.626036127093629  0.0000
  Si     Si        0.682648984742669    0.326245073237942    0.705975941419001  0.0000
  Si     Si        0.660541584955341    0.723734750152058    0.709965452931995  0.0000
  Si     Si        0.280184381072811    0.703338451346194    0.312531462887800  0.0000
  Si     Si        0.323234764879875    0.270008281241576    0.623671388163695  0.0000
  Si     Si        0.676503540146445    0.347741034409591    0.398613895382163  0.0000
  Si     Si        0.878863468715792    0.048430493125287    0.371445706982575  0.0000
  Si     Si        0.098375362694841    0.975103451783014    0.673382459393091  0.0000
  Si     Si        0.078098130563596    0.012506975182513    0.169253196006063  0.0000
  Si     Si        0.885887125921446    0.015157792000460    0.859457947024733  0.0000
  O3     O3        0.267019718287892    0.261518755903276    0.460249264503004  0.0000
  O2     O2        0.722051908372756    0.342751702883144    0.563695613274176  0.0000
  O3     O3        0.708340011901571    0.763070758177597    0.573198904182433  0.0000
  O3     O3        0.230499184895052    0.690835202247965    0.450123799077359  0.0000
  O3     O3        0.282457722658719    0.513442769297510    0.255447678014442  0.0000
  O2     O2        0.694100087206065    0.520707095052853    0.763590982829821  0.0000
  O3     O3        0.508587621729701    0.256904846799849    0.338418793963267  0.0000
  O2     O2        0.509336836751030    0.245773790357595    0.679115656666643  0.0000
  O3     O3        0.479915848691784    0.756281743240848    0.684774807805887  0.0000
  O3     O3        0.450243210374815    0.794191518084890    0.344744517194769  0.0000
  O3     O3        0.209090596573240    0.162993816413177    0.183378884867298  0.0000
  O2     O2        0.802227651349192    0.199761391541936    0.812297953261791  0.0000
  O2     O2        0.765202983624312    0.852292657005178    0.822893896089420  0.0000
  O2     O2        0.156653318655496    0.823400930554740    0.200845622667743  0.0000
  O3     O3        0.282955954003476    0.453771865702361    0.671541475860893  0.0000
  O3     O3        0.676695850479207    0.547435336694677    0.346787459427957  0.0000
  O2     O2        0.241594306477387    0.112328251093048    0.686817488403471  0.0000
  O2     O2        0.804441079196775    0.240049381559663    0.357144516377055  0.0000
  O3     O3        0.744005623237798    0.902778629995477    0.322573097850001  0.0000
  O3     O3        0.167614482858368    0.782914911646148    0.688731808022732  0.0000
  O2     O2        0.966965629714158    0.999844985595214    0.529181630576236  0.0000
  O2     O2        0.994557127566898    0.055837184076836    0.281486478979976  0.0000
  O2     O2        0.027259612573521    0.000282545320486    0.796234136980033  0.0000
  O2     O2        0.953177964501420    0.014229919112949    0.021959156319715  0.0000
