data_c00024.vasp
_audit_creation_method             Generated by GULP
_audit_author_name                 Salvador R. G. Balestra
_symmetry_space_group_name_H-M     'P 1             '
_symmetry_Int_Tables_number        1

loop_
_symmetry_equiv_pos_site_id
_symmetry_equiv_pos_as_xyz
_cell_length_a                        9.0275
_cell_length_b                        7.7220
_cell_length_c                       10.3245
_cell_angle_alpha                   87.5480
_cell_angle_beta                   107.8248
_cell_angle_gamma                   91.3921

loop_
_atom_site_label
_atom_site_type_symbol
_atom_site_fract_x
_atom_site_fract_y
_atom_site_fract_z
_atom_site_charge
  Ge     Ge        0.313819999999964    0.296860000000038    0.309830000000034  0.0000
  Ge     Ge        0.692371125997808    0.318851217548670    0.399462531559962  0.0000
  Ge     Ge        0.323775160812443    0.676081926046445    0.631774418642249  0.0000
  Si     Si        0.702187739952899    0.294579009033523    0.705995711404135  0.0000
  Si     Si        0.692200421508253    0.687813377871170    0.715615199116090  0.0000
  Si     Si        0.308733566799910    0.701675507738149    0.318936103290006  0.0000
  Si     Si        0.334490370785441    0.273870894712541    0.620414531548645  0.0000
  Si     Si        0.672161202986650    0.718897133387951    0.406801592270699  0.0000
  Si     Si        0.896210672665059    0.016988476877025    0.376108906495360  0.0000
  Si     Si        0.125928911735020    0.977832410743522    0.678360915588847  0.0000
  Si     Si        0.093411805223284    0.998259227961394    0.171632980712474  0.0000
  Si     Si        0.907195139834236    0.988690121129450    0.860888869879000  0.0000
  O3     O3        0.265278078569747    0.259941999647781    0.458452940951957  0.0000
  O3     O3        0.758590105197251    0.288232265540275    0.574754096055976  0.0000
  O2     O2        0.724933455954345    0.711972599988374    0.571012079009738  0.0000
  O3     O3        0.264064262901591    0.709566080265737    0.457459227145680  0.0000
  O3     O3        0.282626790883279    0.512525613535172    0.260348667492842  0.0000
  O2     O2        0.725551583436864    0.486877112082542    0.767351544784055  0.0000
  O1     O1        0.504209953140603    0.250317386787222    0.332598428548688  0.0000
  O2     O2        0.519431653790484    0.247179955145457    0.657464099851524  0.0000
  O3     O3        0.516639861043080    0.734519826287408    0.701544629208065  0.0000
  O2     O2        0.489464823565976    0.756524369420992    0.353259946022427  0.0000
  O3     O3        0.191234472503777    0.174878113419338    0.185053804355666  0.0000
  O2     O2        0.796549264936540    0.155362134611293    0.818960329713574  0.0000
  O2     O2        0.809128449630777    0.812125288897491    0.820903509450966  0.0000
  O2     O2        0.211494997754945    0.838116868030220    0.205601109950119  0.0000
  O3     O3        0.299936705656484    0.458635978265891    0.667835458192862  0.0000
  O3     O3        0.707487422878321    0.536101299168338    0.356681434368528  0.0000
  O2     O2        0.262192924433138    0.122217881906698    0.694454824333949  0.0000
  O3     O3        0.817662714417792    0.203124353480996    0.340638862336449  0.0000
  O2     O2        0.758871104678559    0.873000312173108    0.350505134214429  0.0000
  O3     O3        0.205605210661510    0.791847544478168    0.697846702573038  0.0000
  O2     O2        0.998987493682365    0.999727419247845    0.532310163694390  0.0000
  O2     O2        0.996602202961843    0.985637963858115    0.277867218174403  0.0000
  O2     O2        0.047386115332602    0.002973748391106    0.795704809564287  0.0000
  O2     O2        0.976032987753393    0.982971229021533    0.022196517847259  0.0000
