data_c00046.vasp
_audit_creation_method             Generated by GULP
_audit_author_name                 Salvador R. G. Balestra
_symmetry_space_group_name_H-M     'P 1             '
_symmetry_Int_Tables_number        1

loop_
_symmetry_equiv_pos_site_id
_symmetry_equiv_pos_as_xyz
_cell_length_a                        9.1221
_cell_length_b                        7.6848
_cell_length_c                       10.2693
_cell_angle_alpha                   89.1943
_cell_angle_beta                   108.0044
_cell_angle_gamma                   91.0621

loop_
_atom_site_label
_atom_site_type_symbol
_atom_site_fract_x
_atom_site_fract_y
_atom_site_fract_z
_atom_site_charge
  Ge     Ge        0.331050000000005    0.296920000000000    0.607380000000035  0.0000
  Ge     Ge        0.677315734011739    0.336708654507300    0.377843160054647  0.0000
  Ge     Ge        0.086160856524388    0.005110627377580    0.138654506915397  0.0000
  Si     Si        0.319918760419587    0.301004020230668    0.296485810610509  0.0000
  Si     Si        0.689944190452565    0.322316250669284    0.696099112058612  0.0000
  Si     Si        0.670880718829533    0.719544103529693    0.692404792407975  0.0000
  Si     Si        0.303695349555949    0.706421935817655    0.299671082603716  0.0000
  Si     Si        0.657443392429197    0.739337424601500    0.382832154322517  0.0000
  Si     Si        0.314508092361082    0.702985212899473    0.602746942849568  0.0000
  Si     Si        0.876171403485570    0.033148973557805    0.329685363077625  0.0000
  Si     Si        0.106926215549295    0.998931465685405    0.626172579793903  0.0000
  Si     Si        0.897965230907300    0.013543078779572    0.818650572563853  0.0000
  O3     O3        0.319901567727544    0.231284285833891    0.444750275706268  0.0000
  O3     O3        0.691250987917400    0.282472275722474    0.544100287884308  0.0000
  O2     O2        0.678532063225259    0.769635696485811    0.542306905997149  0.0000
  O2     O2        0.292711349353761    0.764597961192964    0.446832908823973  0.0000
  O2     O2        0.266166481337939    0.501550604311145    0.282329259876887  0.0000
  O2     O2        0.735572034527823    0.525301146545884    0.732386669382426  0.0000
  O3     O3        0.489395204319693    0.292603302587981    0.281298908688037  0.0000
  O3     O3        0.521003080182761    0.286651091625788    0.707531597395415  0.0000
  O2     O2        0.494170288645982    0.725739004612599    0.692292850869802  0.0000
  O2     O2        0.477101737195014    0.744137813846936    0.295904051729607  0.0000
  O3     O3        0.202325019788044    0.186882111938386    0.182018578660497  0.0000
  O2     O2        0.813339747098153    0.199378970365598    0.801654484117340  0.0000
  O2     O2        0.771182671113988    0.857543784168641    0.801099941329409  0.0000
  O3     O3        0.185959165459625    0.814000922495985    0.182865346820854  0.0000
  O3     O3        0.263283053489653    0.505139901501054    0.608498483215928  0.0000
  O3     O3        0.723852760258347    0.554203311792375    0.364092224344404  0.0000
  O3     O3        0.217586880551748    0.164772313334483    0.673510553106664  0.0000
  O3     O3        0.808419494939174    0.224553393119007    0.324645817726294  0.0000
  O2     O2        0.741153304748213    0.894879496647701    0.327943837186336  0.0000
  O2     O2        0.210649786623322    0.826021722517894    0.662456762395247  0.0000
  O2     O2        0.024300476389935    0.011343062902923    0.463086798086676  0.0000
  O3     O3        0.929412591675734    0.007935294090578    0.197799139998731  0.0000
  O2     O2        0.979339167026117    0.989750388881797    0.702057284973647  0.0000
  O3     O3        0.023462819316095    0.003382570651021    0.963111704979975  0.0000
