data_c00022.vasp
_audit_creation_method             Generated by GULP
_audit_author_name                 Salvador R. G. Balestra
_symmetry_space_group_name_H-M     'P 1             '
_symmetry_Int_Tables_number        1

loop_
_symmetry_equiv_pos_site_id
_symmetry_equiv_pos_as_xyz
_cell_length_a                        8.9882
_cell_length_b                        7.6972
_cell_length_c                       10.1838
_cell_angle_alpha                   86.8435
_cell_angle_beta                   107.7302
_cell_angle_gamma                   91.2851

loop_
_atom_site_label
_atom_site_type_symbol
_atom_site_fract_x
_atom_site_fract_y
_atom_site_fract_z
_atom_site_charge
  Ge     Ge        0.313819999999964    0.296860000000038    0.309830000000034  0.0000
  Ge     Ge        0.340171729278876    0.255431888519719    0.636189407158662  0.0000
  Ge     Ge        0.892610602892421    0.996088513658552    0.868252001290485  0.0000
  Si     Si        0.692069171056270    0.318069843184610    0.713810581277731  0.0000
  Si     Si        0.659677219225645    0.707696196624344    0.715097453640232  0.0000
  Si     Si        0.289190004517568    0.704324978118636    0.316733247318232  0.0000
  Si     Si        0.667893097116051    0.348650975554414    0.396470188376381  0.0000
  Si     Si        0.650522475759718    0.740955511761258    0.404828823330237  0.0000
  Si     Si        0.298855052406412    0.660684627503997    0.624737890592636  0.0000
  Si     Si        0.879905395741012    0.039221811559316    0.396992403275578  0.0000
  Si     Si        0.116982618135631    0.958584098526971    0.693129702999799  0.0000
  Si     Si        0.073216072092357    0.013708561330654    0.185648131884868  0.0000
  O1     O1        0.311016161160873    0.210182157498206    0.467757563270691  0.0000
  O2     O2        0.644366938763647    0.316330309432237    0.546970053549146  0.0000
  O2     O2        0.677745320694789    0.769362677605652    0.566163491406336  0.0000
  O2     O2        0.271700774684415    0.727916142506039    0.467049939780364  0.0000
  O3     O3        0.248566738586582    0.509204604521477    0.276280075655855  0.0000
  O2     O2        0.733855109022783    0.515945256090167    0.759562198294111  0.0000
  O3     O3        0.500987688615495    0.301800323496715    0.293476512171890  0.0000
  O3     O3        0.532811720734737    0.251383017751040    0.740062922634906  0.0000
  O2     O2        0.479159080990724    0.697176702734101    0.709282873517628  0.0000
  O2     O2        0.467164375862631    0.754846877695242    0.321229423222098  0.0000
  O3     O3        0.191520403287888    0.172279896547469    0.185868515705621  0.0000
  O3     O3        0.836225077127829    0.199868415563865    0.791554552587769  0.0000
  O3     O3        0.744133712828394    0.845010311703802    0.823497968798367  0.0000
  O2     O2        0.171156073765919    0.835125816784477    0.208988750866268  0.0000
  O3     O3        0.261153741714069    0.459394228228585    0.635838889276206  0.0000
  O2     O2        0.712733864794772    0.552854989755934    0.380115198329260  0.0000
  O3     O3        0.248248463378131    0.105347645505242    0.715886648308333  0.0000
  O2     O2        0.803030660617315    0.230776355322855    0.375160894197769  0.0000
  O2     O2        0.745739274877801    0.891987842420531    0.349020401957668  0.0000
  O2     O2        0.186382124385121    0.770632169814820    0.683055594182770  0.0000
  O2     O2        0.972590723115019    0.009196702665245    0.557652375293247  0.0000
  O2     O2        0.996727124973539    0.037917974395812    0.307375092060607  0.0000
  O3     O3        0.052853133065961    0.938697885317255    0.822843628869221  0.0000
  O3     O3        0.937675941307142    0.010387288798299    0.043392350942151  0.0000
