data_c00028.vasp
_audit_creation_method             Generated by GULP
_audit_author_name                 Salvador R. G. Balestra
_symmetry_space_group_name_H-M     'P 1             '
_symmetry_Int_Tables_number        1

loop_
_symmetry_equiv_pos_site_id
_symmetry_equiv_pos_as_xyz
_cell_length_a                        9.0792
_cell_length_b                        7.7069
_cell_length_c                       10.2990
_cell_angle_alpha                   88.5507
_cell_angle_beta                   107.5614
_cell_angle_gamma                   90.1195

loop_
_atom_site_label
_atom_site_type_symbol
_atom_site_fract_x
_atom_site_fract_y
_atom_site_fract_z
_atom_site_charge
  Ge     Ge        0.313819999999964    0.296860000000038    0.309830000000034  0.0000
  Ge     Ge        0.686292256765470    0.288729248794859    0.403132737365600  0.0000
  Ge     Ge        0.914527951233518    0.967254184140420    0.871292611421408  0.0000
  Si     Si        0.690087637386317    0.268877676715405    0.711234875957911  0.0000
  Si     Si        0.693592217373965    0.672236872540348    0.716528206663790  0.0000
  Si     Si        0.327937065498318    0.696290133288689    0.324852536346973  0.0000
  Si     Si        0.334445880473838    0.278225174114948    0.626874422698899  0.0000
  Si     Si        0.688216537629837    0.690836822470611    0.415580945612545  0.0000
  Si     Si        0.338240747535026    0.677688688099788    0.631246721644474  0.0000
  Si     Si        0.901136661653799    0.987760401652826    0.387209134711642  0.0000
  Si     Si        0.133215032600180    0.976009835908715    0.682979734293456  0.0000
  Si     Si        0.103650508434631    0.989421299820582    0.187569604504930  0.0000
  O3     O3        0.308048331962471    0.235563384097468    0.470945073211174  0.0000
  O3     O3        0.700613267281107    0.212778461464423    0.565913472488291  0.0000
  O2     O2        0.708518069789193    0.740964640958002    0.571488071151723  0.0000
  O2     O2        0.315277266848419    0.731986123072927    0.474860502192593  0.0000
  O3     O3        0.257212832725051    0.511581610409436    0.275828110567212  0.0000
  O2     O2        0.739365180138795    0.469638466955670    0.735516329869768  0.0000
  O1     O1        0.498833661596585    0.270894593799129    0.303912048125317  0.0000
  O2     O2        0.513269366818406    0.248048490557963    0.712040928312772  0.0000
  O2     O2        0.517341819735437    0.698006102214650    0.718003701174738  0.0000
  O2     O2        0.507257078505081    0.693520488461026    0.330343994692987  0.0000
  O3     O3        0.182160048795585    0.176269700626665    0.191493429287674  0.0000
  O3     O3        0.801343910675687    0.150868115272657    0.827918842398498  0.0000
  O3     O3        0.806805482864669    0.780748636693007    0.832357016190268  0.0000
  O2     O2        0.243055035220503    0.848393622373667    0.220828542329802  0.0000
  O2     O2        0.285825632559694    0.478057745853094    0.640559417645964  0.0000
  O3     O3        0.750971359134911    0.500268018824329    0.407051487535797  0.0000
  O2     O2        0.232339278810414    0.150825101184165    0.689621427383869  0.0000
  O3     O3        0.809781156890887    0.166904217324048    0.343736353767096  0.0000
  O2     O2        0.777346133316193    0.831694461446334    0.350865368295282  0.0000
  O2     O2        0.235754880871345    0.803077280107651    0.690929126321251  0.0000
  O2     O2        0.986721045110738    0.980484243465365    0.548703901251780  0.0000
  O2     O2        0.023218661194855    0.966815880986300    0.306161809555291  0.0000
  O3     O3        0.072337066941954    0.971247108930247    0.812332708196830  0.0000
  O3     O3        0.979646525426464    0.958653411372435    0.046006659440595  0.0000
