data_c00050.vasp
_audit_creation_method             Generated by GULP
_audit_author_name                 Salvador R. G. Balestra
_symmetry_space_group_name_H-M     'P 1             '
_symmetry_Int_Tables_number        1

loop_
_symmetry_equiv_pos_site_id
_symmetry_equiv_pos_as_xyz
_cell_length_a                        9.0893
_cell_length_b                        7.6151
_cell_length_c                       10.3144
_cell_angle_alpha                   92.1232
_cell_angle_beta                   109.6825
_cell_angle_gamma                   87.9028

loop_
_atom_site_label
_atom_site_type_symbol
_atom_site_fract_x
_atom_site_fract_y
_atom_site_fract_z
_atom_site_charge
  Ge     Ge        0.331050000000005    0.296920000000000    0.607380000000035  0.0000
  Ge     Ge        0.382615020756490    0.709116218729900    0.609163064951709  0.0000
  Ge     Ge        0.140641251730589    0.994358343796975    0.663452904563630  0.0000
  Si     Si        0.313754419564122    0.252869294804377    0.297420363818385  0.0000
  Si     Si        0.696923473639203    0.237509047962201    0.688815353876787  0.0000
  Si     Si        0.738939525448562    0.631433629652216    0.689242945109493  0.0000
  Si     Si        0.340384773534999    0.660081618833378    0.291859124727125  0.0000
  Si     Si        0.669324713265138    0.216073499874506    0.375277848608640  0.0000
  Si     Si        0.693271243723551    0.612503718060245    0.370912872688145  0.0000
  Si     Si        0.897481589830924    0.913083827262413    0.358141545715775  0.0000
  Si     Si        0.100107490636092    0.947639301579108    0.161763249168882  0.0000
  Si     Si        0.934568398686729    0.942821786125655    0.846044318967534  0.0000
  O3     O3        0.307400283329539    0.208422209867890    0.444535333833536  0.0000
  O2     O2        0.692058733117320    0.184243481405575    0.534278102209763  0.0000
  O2     O2        0.713740281075083    0.659406754630084    0.528884446182630  0.0000
  O3     O3        0.350914682499298    0.747112023521255    0.437634614508039  0.0000
  O2     O2        0.276506692635885    0.461540413613968    0.273911750684535  0.0000
  O2     O2        0.778883696590612    0.427143918237357    0.728150624552098  0.0000
  O2     O2        0.485568685148374    0.205616080896288    0.288150582290936  0.0000
  O3     O3        0.526779999479355    0.250171742698709    0.700137045708520  0.0000
  O3     O3        0.577410368163811    0.688623813432107    0.708210498308024  0.0000
  O2     O2        0.513328666521864    0.654491162576324    0.278699398376399  0.0000
  O2     O2        0.187237193849955    0.133493791699845    0.184944579618709  0.0000
  O2     O2        0.799142120303562    0.090090723032456    0.788228557142420  0.0000
  O2     O2        0.878316426215595    0.749196638689670    0.784522595054630  0.0000
  O2     O2        0.223713687955513    0.784671859223568    0.176532686595301  0.0000
  O1     O1        0.294176538345802    0.516170005444633    0.613198137410975  0.0000
  O2     O2        0.732897662120010    0.405836200469311    0.355941134925593  0.0000
  O1     O1        0.192823472014031    0.206432233369637    0.659099785052009  0.0000
  O2     O2        0.767931498432234    0.070997826474570    0.321297948769827  0.0000
  O2     O2        0.808946129353753    0.727139233880650    0.321756521250598  0.0000
  O1     O1        0.311108229936757    0.878153402973648    0.682643374944498  0.0000
  O3     O3        0.997573450851004    0.917379668904866    0.517879826892553  0.0000
  O2     O2        0.008401940320791    0.927960655991375    0.268369429961519  0.0000
  O3     O3        0.083714417796751    0.982095147872035    0.805545211387732  0.0000
  O2     O2        0.976257622599365    0.942390171986697    0.009495328227927  0.0000
