data_c00012.vasp
_audit_creation_method             Generated by GULP
_audit_author_name                 Salvador R. G. Balestra
_symmetry_space_group_name_H-M     'P 1             '
_symmetry_Int_Tables_number        1

loop_
_symmetry_equiv_pos_site_id
_symmetry_equiv_pos_as_xyz
_cell_length_a                        8.9829
_cell_length_b                        7.6309
_cell_length_c                       10.2571
_cell_angle_alpha                   89.1963
_cell_angle_beta                   107.2399
_cell_angle_gamma                   91.6221

loop_
_atom_site_label
_atom_site_type_symbol
_atom_site_fract_x
_atom_site_fract_y
_atom_site_fract_z
_atom_site_charge
  Ge     Ge        0.313819999999964    0.296860000000038    0.309830000000034  0.0000
  Ge     Ge        0.276693279741436    0.717290667024803    0.300879205566862  0.0000
  Ge     Ge        0.885301673849495    0.061902568970219    0.377757488303545  0.0000
  Si     Si        0.690468067605940    0.359057203580457    0.703306827420571  0.0000
  Si     Si        0.661508503344878    0.756850589648678    0.694532993013818  0.0000
  Si     Si        0.327692261247807    0.312604186870580    0.624171391346191  0.0000
  Si     Si        0.674987028488466    0.363027776999611    0.395505700615196  0.0000
  Si     Si        0.640110097158729    0.768763241319231    0.385105511960057  0.0000
  Si     Si        0.298274774000066    0.716077563078810    0.616191058212085  0.0000
  Si     Si        0.113333476369343    0.017831926125536    0.682893525244272  0.0000
  Si     Si        0.075182496426328    0.019059253556188    0.159629669506659  0.0000
  Si     Si        0.887639716295161    0.051091685546879    0.855782110069573  0.0000
  O3     O3        0.274629353362353    0.267880275920755    0.464988445985193  0.0000
  O2     O2        0.725030122272470    0.342195277699456    0.559935758346350  0.0000
  O2     O2        0.690951462957217    0.793831814744449    0.549427038181841  0.0000
  O3     O3        0.237828652370651    0.747307309924947    0.455122533888839  0.0000
  O1     O1        0.263344944843786    0.505190022971848    0.254239637411673  0.0000
  O2     O2        0.714662911676513    0.561904853560300    0.750234620730720  0.0000
  O3     O3        0.509159599156956    0.267004156037070    0.335560259059109  0.0000
  O2     O2        0.513490715627266    0.295268182633693    0.687992509027913  0.0000
  O2     O2        0.478930452201097    0.776047692462286    0.676578985296056  0.0000
  O3     O3        0.460007304191460    0.810417948756528    0.321109628949057  0.0000
  O3     O3        0.220855489350123    0.153925757910859    0.182351954312868  0.0000
  O2     O2        0.810913839383887    0.239411915878687    0.812556831089765  0.0000
  O2     O2        0.759571866300986    0.896997636428275    0.802312411455183  0.0000
  O3     O3        0.137189450950805    0.823896709424179    0.175014009621346  0.0000
  O2     O2        0.278159164378381    0.509713393330890    0.646505151410782  0.0000
  O2     O2        0.661363312563142    0.566222239445217    0.351227502080451  0.0000
  O2     O2        0.240680363219123    0.176024162663112    0.699193283365305  0.0000
  O3     O3        0.800632542979304    0.265848334865185    0.344860813080052  0.0000
  O3     O3        0.746819970743920    0.894050682274820    0.324314085261508  0.0000
  O2     O2        0.196199267077519    0.831162041972130    0.686842969564992  0.0000
  O3     O3        0.970553383115530    0.036563167890427    0.549222874838445  0.0000
  O3     O3        0.015357795662050    0.064705497892087    0.287970241560590  0.0000
  O2     O2        0.042064388632030    0.024702855936217    0.809791430123143  0.0000
  O2     O2        0.939512076035625    0.044995426733427    0.019474738306395  0.0000
