data_c00053.vasp
_audit_creation_method             Generated by GULP
_audit_author_name                 Salvador R. G. Balestra
_symmetry_space_group_name_H-M     'P 1             '
_symmetry_Int_Tables_number        1

loop_
_symmetry_equiv_pos_site_id
_symmetry_equiv_pos_as_xyz
_cell_length_a                        9.2021
_cell_length_b                        7.6508
_cell_length_c                       10.3400
_cell_angle_alpha                   91.5515
_cell_angle_beta                   110.0322
_cell_angle_gamma                   88.1380

loop_
_atom_site_label
_atom_site_type_symbol
_atom_site_fract_x
_atom_site_fract_y
_atom_site_fract_z
_atom_site_charge
  Ge     Ge        0.331050000000005    0.296920000000000    0.607380000000035  0.0000
  Ge     Ge        0.875837429735861    0.937588705805766    0.349721822696362  0.0000
  Ge     Ge        0.134612975332276    0.991417777554444    0.661601523476258  0.0000
  Si     Si        0.291293319898413    0.276369971862904    0.288641748294866  0.0000
  Si     Si        0.691221473296080    0.252692058050636    0.677128405178935  0.0000
  Si     Si        0.717155107956206    0.653406046382052    0.673511080777961  0.0000
  Si     Si        0.317383539630093    0.677042323729658    0.289819154344151  0.0000
  Si     Si        0.644732347339031    0.237598799272065    0.361972977311295  0.0000
  Si     Si        0.672608896891124    0.635407336577273    0.361829016973911  0.0000
  Si     Si        0.361851633636550    0.702938393858747    0.603099352904446  0.0000
  Si     Si        0.086126309055306    0.970261166777140    0.154444154102181  0.0000
  Si     Si        0.924279460758949    0.955100365107761    0.838401147924364  0.0000
  O3     O3        0.284443506116865    0.233191268004200    0.436467003125334  0.0000
  O2     O2        0.678759174006727    0.196519201425086    0.522271411964494  0.0000
  O2     O2        0.722089173851043    0.692347070813758    0.523009972349856  0.0000
  O2     O2        0.315802824191442    0.737738388794655    0.439831205254307  0.0000
  O2     O2        0.251174255779083    0.481528349406387    0.256141784323666  0.0000
  O2     O2        0.756187222503384    0.449536598295930    0.709731601069417  0.0000
  O2     O2        0.461251215724991    0.230668699095567    0.282875072481512  0.0000
  O3     O3        0.524830482554715    0.245734114926842    0.692447095998228  0.0000
  O2     O2        0.546942365291807    0.699821237960375    0.676524966497908  0.0000
  O2     O2        0.490849238865001    0.680226011878025    0.286725876659380  0.0000
  O2     O2        0.169148913734805    0.157144831516802    0.174787377230144  0.0000
  O2     O2        0.811699229745234    0.121058069110168    0.778870271361116  0.0000
  O2     O2        0.841040844263589    0.772293965263053    0.783386450527331  0.0000
  O2     O2        0.212028942726323    0.810411283512135    0.177258615507318  0.0000
  O3     O3        0.296836583508069    0.518042556973476    0.621814322821792  0.0000
  O2     O2        0.704755163237046    0.429667647670150    0.347945844377667  0.0000
  O1     O1        0.206546544288144    0.196456378393306    0.668162504259892  0.0000
  O3     O3        0.735012539770292    0.101900680663692    0.298588575364254  0.0000
  O3     O3        0.777798088143353    0.742903192122599    0.301361768478980  0.0000
  O3     O3        0.291518381507971    0.855466590991048    0.670770992433197  0.0000
  O1     O1        0.975226490989257    0.950692626985456    0.521654531409043  0.0000
  O3     O3        0.002706071070516    0.952643963956053    0.264367270877871  0.0000
  O3     O3        0.079156998971509    0.965829140276611    0.803430181478427  0.0000
  O2     O2        0.963967541050032    0.958917138896062    0.001974105270461  0.0000
