data_c00008.vasp
_audit_creation_method             Generated by GULP
_audit_author_name                 Salvador R. G. Balestra
_symmetry_space_group_name_H-M     'P 1             '
_symmetry_Int_Tables_number        1

loop_
_symmetry_equiv_pos_site_id
_symmetry_equiv_pos_as_xyz
_cell_length_a                        9.2140
_cell_length_b                        7.6462
_cell_length_c                       10.1990
_cell_angle_alpha                   86.9118
_cell_angle_beta                   111.0556
_cell_angle_gamma                   88.5454

loop_
_atom_site_label
_atom_site_type_symbol
_atom_site_fract_x
_atom_site_fract_y
_atom_site_fract_z
_atom_site_charge
  Ge     Ge        0.313819999999964    0.296860000000038    0.309830000000034  0.0000
  Ge     Ge        0.747228575449586    0.617535626771206    0.730553967278371  0.0000
  Ge     Ge        0.899001020365123    0.964233643481799    0.347867447625372  0.0000
  Si     Si        0.725893189677982    0.205865910470282    0.705391540332622  0.0000
  Si     Si        0.355702086739093    0.688990758063767    0.338066612145647  0.0000
  Si     Si        0.366148480676711    0.244092256903953    0.637300657480238  0.0000
  Si     Si        0.680339111027242    0.255860655899900    0.391499981669120  0.0000
  Si     Si        0.702445563771152    0.662612512230026    0.408590713340333  0.0000
  Si     Si        0.395732275399418    0.631377088529447    0.661990340253415  0.0000
  Si     Si        0.166480304280906    0.942112687217648    0.660177381650490  0.0000
  Si     Si        0.113729210978194    0.991427696511239    0.172616641875089  0.0000
  Si     Si        0.970440536072768    0.905769197087391    0.860597305410502  0.0000
  O3     O3        0.297761702283130    0.240622723953231    0.469634410040148  0.0000
  O2     O2        0.729440633618000    0.171393442607053    0.551619684782539  0.0000
  O3     O3        0.746916589827008    0.704624142846284    0.570469726986146  0.0000
  O2     O2        0.398559440560613    0.641971219525019    0.504307403341604  0.0000
  O3     O3        0.275032709495008    0.520094685195507    0.263073895666975  0.0000
  O3     O3        0.787835819528925    0.394187202894435    0.751437956593394  0.0000
  O3     O3        0.497372505791071    0.246900871499885    0.310906817587302  0.0000
  O2     O2        0.549470438630989    0.190898592904365    0.698008705789756  0.0000
  O3     O3        0.573277058891764    0.657000235460803    0.756941996472872  0.0000
  O2     O2        0.520697679142319    0.718625017570458    0.319664705013575  0.0000
  O3     O3        0.174336740684321    0.186155465263693    0.186512058210770  0.0000
  O2     O2        0.829898306252806    0.053787727684280    0.814937834473821  0.0000
  O3     O3        0.895890316211259    0.719062777285946    0.853470692797932  0.0000
  O2     O2        0.250274053757443    0.865868617529620    0.287396092142915  0.0000
  O2     O2        0.342013172607608    0.436252257352140    0.687949274358828  0.0000
  O2     O2        0.730854247162730    0.456143514015354    0.398525724036383  0.0000
  O2     O2        0.276157522191525    0.107204025427685    0.702226710987353  0.0000
  O3     O3        0.772286211178150    0.144363592711942    0.317498646319310  0.0000
  O3     O3        0.808125302664025    0.769602713033501    0.343059470581629  0.0000
  O2     O2        0.274692135692527    0.765516750838233    0.686284101708579  0.0000
  O3     O3        0.058692351674883    0.970636822241757    0.498892490978255  0.0000
  O3     O3        0.958489592787820    0.975299669669864    0.205795375916985  0.0000
  O2     O2        0.068160273791803    0.925294390427532    0.759533214900415  0.0000
  O2     O2        0.086458434766310    0.930293266589567    0.017877101402765  0.0000
