data_c00054.vasp
_audit_creation_method             Generated by GULP
_audit_author_name                 Salvador R. G. Balestra
_symmetry_space_group_name_H-M     'P 1             '
_symmetry_Int_Tables_number        1

loop_
_symmetry_equiv_pos_site_id
_symmetry_equiv_pos_as_xyz
_cell_length_a                        9.1453
_cell_length_b                        7.6866
_cell_length_c                       10.3624
_cell_angle_alpha                   91.0370
_cell_angle_beta                   108.7150
_cell_angle_gamma                   88.6830

loop_
_atom_site_label
_atom_site_type_symbol
_atom_site_fract_x
_atom_site_fract_y
_atom_site_fract_z
_atom_site_charge
  Ge     Ge        0.331050000000005    0.296920000000000    0.607380000000035  0.0000
  Ge     Ge        0.885542325702146    0.953659514548164    0.326982288944702  0.0000
  Ge     Ge        0.099328917578281    0.981527513765690    0.133868228033162  0.0000
  Si     Si        0.306617209850460    0.286697849681814    0.294920915562860  0.0000
  Si     Si        0.692908407727720    0.265426095302536    0.689249460723802  0.0000
  Si     Si        0.709633344961098    0.664326805873406    0.687518198573799  0.0000
  Si     Si        0.335579220957604    0.688572399734974    0.299375616391517  0.0000
  Si     Si        0.661071101132719    0.251512779348830    0.378619895375417  0.0000
  Si     Si        0.690499298499155    0.650191837806354    0.382408804845277  0.0000
  Si     Si        0.352402781992186    0.701416445002288    0.604211141933872  0.0000
  Si     Si        0.129708002991146    0.994291172389511    0.625557640709823  0.0000
  Si     Si        0.921934030403828    0.966141582323631    0.814303002501491  0.0000
  O3     O3        0.293599768363062    0.235146399736114    0.439722463826685  0.0000
  O2     O2        0.689487847809549    0.209802271013327    0.537104054488249  0.0000
  O2     O2        0.724716073412336    0.704815931125411    0.540533946342904  0.0000
  O2     O2        0.323709086479837    0.746610902028354    0.446302098315483  0.0000
  O2     O2        0.274406954345823    0.492328027678584    0.269726256740213  0.0000
  O2     O2        0.753740151535115    0.462823365863659    0.725082768346838  0.0000
  O2     O2        0.479971972571310    0.239461003329192    0.295530237630851  0.0000
  O3     O3        0.522596046014909    0.255711074486754    0.698449538315022  0.0000
  O2     O2        0.535059856674638    0.702132959454845    0.685876692524741  0.0000
  O2     O2        0.512221761835154    0.697012291065749    0.301071116394993  0.0000
  O3     O3        0.182927753109596    0.182033417676207    0.179168091217331  0.0000
  O2     O2        0.808209938399952    0.135093094763999    0.795192991441140  0.0000
  O2     O2        0.822566806019866    0.790450288632031    0.798475007581376  0.0000
  O3     O3        0.233766908892370    0.814936880213930    0.186987444547738  0.0000
  O3     O3        0.287389667258362    0.514532952609820    0.618640446519953  0.0000
  O2     O2        0.721642590062972    0.444811269330948    0.368648022633671  0.0000
  O3     O3        0.210324164715294    0.178557281610445    0.668616078970219  0.0000
  O3     O3        0.749773218546042    0.116798213651640    0.313196917786024  0.0000
  O3     O3        0.803644459223849    0.752874366305865    0.325158198269521  0.0000
  O2     O2        0.266186901904413    0.846989762468660    0.667400414655023  0.0000
  O3     O3        0.047221453839676    0.985016922521861    0.464100455851979  0.0000
  O1     O1        0.942443229632136    0.957403411026147    0.185200901180847  0.0000
  O2     O2        0.004335738545026    0.962592859216816    0.698875104930256  0.0000
  O3     O3        0.047682668983552    0.972706778402182    0.958861297880997  0.0000
