data_c00032.vasp
_audit_creation_method             Generated by GULP
_audit_author_name                 Salvador R. G. Balestra
_symmetry_space_group_name_H-M     'P 1             '
_symmetry_Int_Tables_number        1

loop_
_symmetry_equiv_pos_site_id
_symmetry_equiv_pos_as_xyz
_cell_length_a                        9.0888
_cell_length_b                        7.6427
_cell_length_c                       10.1273
_cell_angle_alpha                   87.9896
_cell_angle_beta                   109.8584
_cell_angle_gamma                   87.4931

loop_
_atom_site_label
_atom_site_type_symbol
_atom_site_fract_x
_atom_site_fract_y
_atom_site_fract_z
_atom_site_charge
  Ge     Ge        0.313819999999964    0.296860000000038    0.309830000000034  0.0000
  Ge     Ge        0.724367881900707    0.624134121699299    0.411791151205853  0.0000
  Ge     Ge        0.114722072672754    0.985526436402486    0.168014786802055  0.0000
  Si     Si        0.718665287422578    0.205859715521494    0.718299290348371  0.0000
  Si     Si        0.748384818658433    0.607113051646191    0.733844571982631  0.0000
  Si     Si        0.367939675944129    0.682974130503935    0.331741976419270  0.0000
  Si     Si        0.359445230259739    0.251534630847466    0.639579109098674  0.0000
  Si     Si        0.682966064488517    0.223219912203351    0.399131330839060  0.0000
  Si     Si        0.399469030349950    0.636943181094860    0.653305743596009  0.0000
  Si     Si        0.905448385864211    0.932350139477127    0.349421777558079  0.0000
  Si     Si        0.159668752458310    0.948589920099546    0.648216169331426  0.0000
  Si     Si        0.963154593339445    0.899171140353000    0.851972033523473  0.0000
  O3     O3        0.307791389453564    0.235661885988097    0.473478683562452  0.0000
  O2     O2        0.712960998906649    0.169321438573519    0.562098700031044  0.0000
  O3     O3        0.754290852873195    0.669409586422879    0.583954465714837  0.0000
  O2     O2        0.409214365137997    0.632105081788854    0.498234483768041  0.0000
  O3     O3        0.274286008457864    0.518322629224164    0.260036813902278  0.0000
  O2     O2        0.783847811254054    0.397061046551077    0.761504366337466  0.0000
  O3     O3        0.501197566218269    0.244078287094319    0.310279538786480  0.0000
  O2     O2        0.542647685228750    0.192735578362173    0.719475620930267  0.0000
  O2     O2        0.580062330636846    0.654420181130737    0.752205684431696  0.0000
  O3     O3        0.533933689879203    0.687963655925295    0.309159319714511  0.0000
  O1     O1        0.173295713297674    0.194515850014159    0.184663907640066  0.0000
  O2     O2        0.833577269398153    0.061206039586834    0.827859743894052  0.0000
  O2     O2        0.880303688016333    0.714919329304105    0.844594650362940  0.0000
  O3     O3        0.273668645540972    0.865634054548573    0.287634726587687  0.0000
  O2     O2        0.333198793966030    0.450594227930214    0.681427455200556  0.0000
  O3     O3        0.762264208051557    0.404998700495403    0.392751489324202  0.0000
  O2     O2        0.250633529110761    0.125810749190952    0.693596367579154  0.0000
  O2     O2        0.760402186670225    0.066623852380169    0.339232559209411  0.0000
  O3     O3        0.856271292632283    0.735798752489920    0.358679344139604  0.0000
  O2     O2        0.289186300455536    0.788490150180453    0.679285553182126  0.0000
  O2     O2        0.058511357994470    0.965787931010281    0.483641510736200  0.0000
  O3     O3        0.948900213761147    0.961624603151169    0.211034984574119  0.0000
  O2     O2        0.049199939551561    0.915454983024573    0.738073258870599  0.0000
  O3     O3        0.088569576280604    0.909485154800749    0.004439057111067  0.0000
