data_c00016.vasp
_audit_creation_method             Generated by GULP
_audit_author_name                 Salvador R. G. Balestra
_symmetry_space_group_name_H-M     'P 1             '
_symmetry_Int_Tables_number        1

loop_
_symmetry_equiv_pos_site_id
_symmetry_equiv_pos_as_xyz
_cell_length_a                        9.0821
_cell_length_b                        7.7152
_cell_length_c                       10.2927
_cell_angle_alpha                   88.3093
_cell_angle_beta                   108.5200
_cell_angle_gamma                   89.9624

loop_
_atom_site_label
_atom_site_type_symbol
_atom_site_fract_x
_atom_site_fract_y
_atom_site_fract_z
_atom_site_charge
  Ge     Ge        0.313819999999964    0.296860000000038    0.309830000000034  0.0000
  Ge     Ge        0.340638215795078    0.279048352805845    0.634460997507930  0.0000
  Ge     Ge        0.683128853762321    0.300206008466357    0.395227906817958  0.0000
  Si     Si        0.699833486635186    0.276686929060591    0.713776750970315  0.0000
  Si     Si        0.702104473140192    0.674311295354666    0.717003674230783  0.0000
  Si     Si        0.323656577287347    0.699486005356428    0.325114165852564  0.0000
  Si     Si        0.685782824385377    0.696878832595278    0.410794309496682  0.0000
  Si     Si        0.342620934862940    0.684873143757659    0.631708321823961  0.0000
  Si     Si        0.897572110337173    0.994278335498934    0.377713179166078  0.0000
  Si     Si        0.133898353515635    0.976961525440180    0.681976568929146  0.0000
  Si     Si        0.099599155451637    0.994122443249817    0.177875147311777  0.0000
  Si     Si        0.918041295198270    0.966597358680185    0.864145095936082  0.0000
  O1     O1        0.315163308331823    0.223557600008127    0.469443278548220  0.0000
  O3     O3        0.680494166298591    0.239552161951361    0.557241710315904  0.0000
  O2     O2        0.712996047595320    0.736326749596691    0.569763849248835  0.0000
  O2     O2        0.317020267804087    0.746657795183219    0.474926786955429  0.0000
  O3     O3        0.253541305551462    0.512237406643238    0.286015479685226  0.0000
  O2     O2        0.758700452594412    0.474452411385808    0.748381823521888  0.0000
  O1     O1        0.495161160736250    0.278987091953069    0.292969082550158  0.0000
  O3     O3        0.533174341979649    0.254220659519311    0.733518666646428  0.0000
  O2     O2        0.525546557478179    0.689788515779431    0.717281946570044  0.0000
  O2     O2        0.502409897130087    0.694179493434824    0.328444890683787  0.0000
  O3     O3        0.178350321278816    0.179605877649577    0.188935401866996  0.0000
  O2     O2        0.824418553282596    0.145410623034306    0.813234226830990  0.0000
  O2     O2        0.807617982972130    0.799686939518558    0.829401915065850  0.0000
  O2     O2        0.235794816320337    0.848460648025814    0.216815098176157  0.0000
  O3     O3        0.282105167557787    0.492457716399523    0.636937891159993  0.0000
  O3     O3        0.751444830342090    0.509937337959542    0.395916938539422  0.0000
  O3     O3        0.225884890322271    0.154910192351923    0.704001777881258  0.0000
  O3     O3        0.812492935870700    0.178725538300487    0.344734000090410  0.0000
  O2     O2        0.766061826214841    0.846843237301943    0.347315139422040  0.0000
  O2     O2        0.253541034809771    0.817925010711194    0.697310376654460  0.0000
  O2     O2        0.001919401888590    0.980756915814176    0.535434607635780  0.0000
  O2     O2        0.000586037207130    0.968270826380785    0.280792792814216  0.0000
  O2     O2        0.056971987799494    0.949263162222472    0.800771844434763  0.0000
  O2     O2        0.986491890381551    0.967069603054109    0.026599769432380  0.0000
