data_c00026.vasp
_audit_creation_method             Generated by GULP
_audit_author_name                 Salvador R. G. Balestra
_symmetry_space_group_name_H-M     'P 1             '
_symmetry_Int_Tables_number        1

loop_
_symmetry_equiv_pos_site_id
_symmetry_equiv_pos_as_xyz
_cell_length_a                        9.1074
_cell_length_b                        7.7058
_cell_length_c                       10.3800
_cell_angle_alpha                   88.2025
_cell_angle_beta                   109.1617
_cell_angle_gamma                   90.3900

loop_
_atom_site_label
_atom_site_type_symbol
_atom_site_fract_x
_atom_site_fract_y
_atom_site_fract_z
_atom_site_charge
  Ge     Ge        0.313819999999964    0.296860000000038    0.309830000000034  0.0000
  Ge     Ge        0.687672861739623    0.300893239614823    0.388033150037015  0.0000
  Ge     Ge        0.143218300951635    0.972097780202589    0.678480677950244  0.0000
  Si     Si        0.711354064113325    0.273939104833984    0.703713068735869  0.0000
  Si     Si        0.711821596802049    0.673344161859434    0.710878231371099  0.0000
  Si     Si        0.322112127913771    0.699293107720423    0.325308565502596  0.0000
  Si     Si        0.353806437046172    0.272504065191896    0.624697388352008  0.0000
  Si     Si        0.685210168578587    0.697487967083627    0.403530445181021  0.0000
  Si     Si        0.353531931748861    0.676674602863081    0.629827801245564  0.0000
  Si     Si        0.894918486538321    0.995975917544809    0.371090612665685  0.0000
  Si     Si        0.098694510107758    0.992583580896382    0.177369815274864  0.0000
  Si     Si        0.927757660359325    0.968818655635772    0.864225444339339  0.0000
  O3     O3        0.316202765017713    0.219259498495686    0.468941175231099  0.0000
  O3     O3        0.715288805067204    0.235991593501002    0.555133028106981  0.0000
  O2     O2        0.722955103025426    0.729633438760581    0.563992813142908  0.0000
  O2     O2        0.315924050419241    0.748871623073866    0.473999766004057  0.0000
  O3     O3        0.252225868884535    0.510959766555056    0.285562222248939  0.0000
  O2     O2        0.763569815338656    0.472208140404047    0.743808615630618  0.0000
  O1     O1        0.495488397244496    0.276954471712560    0.296540325179898  0.0000
  O2     O2        0.536782271987214    0.245355634213702    0.705786141389730  0.0000
  O2     O2        0.536736117669081    0.698767870151922    0.711496018430648  0.0000
  O2     O2        0.500133157163268    0.693217946284139    0.328996204961814  0.0000
  O3     O3        0.178537624300888    0.178725961883907    0.189093077248762  0.0000
  O2     O2        0.826604995129583    0.142840602211456    0.811481717454043  0.0000
  O2     O2        0.825887953436291    0.795234313059660    0.820906882424797  0.0000
  O2     O2        0.234324713273171    0.846872140626115    0.215922806931437  0.0000
  O2     O2        0.308255745132946    0.474303738086859    0.627289804807884  0.0000
  O3     O3        0.749411254482771    0.512748906455265    0.382563667962379  0.0000
  O3     O3        0.256804901692108    0.155437198615639    0.695358522245018  0.0000
  O3     O3        0.810236990779445    0.180063033810063    0.330466155174235  0.0000
  O2     O2        0.759843803379982    0.850069652965441    0.337983694334314  0.0000
  O3     O3        0.254127827588847    0.785612000905615    0.698080252472017  0.0000
  O3     O3        0.990167190582284    0.980828411789692    0.530297637512104  0.0000
  O2     O2        0.004570516215684    0.965209136892648    0.282403992515110  0.0000
  O3     O3        0.075229315998179    0.967480334626597    0.814579744040783  0.0000
  O2     O2        0.982542771409772    0.966496426071399    0.027058984874140  0.0000
