data_c00019.vasp
_audit_creation_method             Generated by GULP
_audit_author_name                 Salvador R. G. Balestra
_symmetry_space_group_name_H-M     'P 1             '
_symmetry_Int_Tables_number        1

loop_
_symmetry_equiv_pos_site_id
_symmetry_equiv_pos_as_xyz
_cell_length_a                        9.2475
_cell_length_b                        7.6235
_cell_length_c                       10.2010
_cell_angle_alpha                   88.3303
_cell_angle_beta                   110.9136
_cell_angle_gamma                   87.9695

loop_
_atom_site_label
_atom_site_type_symbol
_atom_site_fract_x
_atom_site_fract_y
_atom_site_fract_z
_atom_site_charge
  Ge     Ge        0.313819999999964    0.296860000000038    0.309830000000034  0.0000
  Ge     Ge        0.369716340765035    0.269836570193595    0.646911219210223  0.0000
  Ge     Ge        0.903525242018440    0.958946559312158    0.351764521056292  0.0000
  Si     Si        0.731883386713849    0.225496971869142    0.711852368161088  0.0000
  Si     Si        0.753152746971779    0.632500742612227    0.724590534756484  0.0000
  Si     Si        0.359121720687266    0.687545192201767    0.332943142081817  0.0000
  Si     Si        0.677992567040231    0.251464894530244    0.392339832718383  0.0000
  Si     Si        0.707366968839307    0.656712590686443    0.407321768149648  0.0000
  Si     Si        0.406068128774631    0.660594349985364    0.656450927872872  0.0000
  Si     Si        0.170308053247865    0.966983515819162    0.662924421759188  0.0000
  Si     Si        0.115400717556217    0.988049113940746    0.173411889430955  0.0000
  Si     Si        0.974223426045930    0.917812479059382    0.857300501379801  0.0000
  O1     O1        0.298517439692207    0.250857668599544    0.468899027213270  0.0000
  O2     O2        0.725953405323088    0.185869346061404    0.555500549470027  0.0000
  O2     O2        0.754325313683533    0.694013709015266    0.572301541289993  0.0000
  O2     O2        0.383504777978917    0.629553908450089    0.493917386661989  0.0000
  O3     O3        0.283701530432025    0.517918719290763    0.253004223573955  0.0000
  O2     O2        0.786351051435831    0.423212537737162    0.751503421897148  0.0000
  O3     O3        0.497019962566297    0.236642361195643    0.313919015825095  0.0000
  O3     O3        0.564241705154508    0.202675440949753    0.717877796633587  0.0000
  O2     O2        0.588653451872837    0.687465381105022    0.737912236722746  0.0000
  O2     O2        0.527776926621366    0.721698875935145    0.325096216294791  0.0000
  O3     O3        0.172291712584512    0.184008217008453    0.187834941539365  0.0000
  O2     O2        0.857182242973470    0.088891108708785    0.818873926697800  0.0000
  O2     O2        0.883041335213618    0.738184884158858    0.839045246890207  0.0000
  O2     O2        0.256043309214136    0.865937406378816    0.284024531390922  0.0000
  O3     O3        0.354840423523469    0.479481830340226    0.704038159037955  0.0000
  O2     O2        0.727800219681744    0.451116223838604    0.385819129745863  0.0000
  O3     O3        0.253494466662145    0.146303001324417    0.709863148486897  0.0000
  O3     O3        0.768913141573248    0.130738435084182    0.321140073330307  0.0000
  O3     O3        0.819047924552604    0.760270328622939    0.349594525003797  0.0000
  O2     O2        0.309861646569038    0.824755899087892    0.679711586577577  0.0000
  O3     O3        0.059171797632320    0.981380443815680    0.502290187542632  0.0000
  O3     O3        0.963490259167876    0.966656749413049    0.210384965310383  0.0000
  O2     O2        0.079068609363188    0.910649763380655    0.762336540172786  0.0000
  O2     O2        0.085551469423167    0.923538931616284    0.017846587034388  0.0000
