data_c00005.vasp
_audit_creation_method             Generated by GULP
_audit_author_name                 Salvador R. G. Balestra
_symmetry_space_group_name_H-M     'P 1             '
_symmetry_Int_Tables_number        1

loop_
_symmetry_equiv_pos_site_id
_symmetry_equiv_pos_as_xyz
_cell_length_a                        9.0076
_cell_length_b                        7.6748
_cell_length_c                       10.2135
_cell_angle_alpha                   90.3445
_cell_angle_beta                   106.7332
_cell_angle_gamma                   88.3958

loop_
_atom_site_label
_atom_site_type_symbol
_atom_site_fract_x
_atom_site_fract_y
_atom_site_fract_z
_atom_site_charge
  Ge     Ge        0.313819999999964    0.296860000000038    0.309830000000034  0.0000
  Ge     Ge        0.688476817929992    0.246591702668176    0.717210635233301  0.0000
  Ge     Ge        0.109110294083870    0.982863107193865    0.160533240327307  0.0000
  Si     Si        0.711397970461759    0.650593796825714    0.721594327356803  0.0000
  Si     Si        0.349984234187253    0.696262419677506    0.326905540373226  0.0000
  Si     Si        0.328630872222529    0.287603356371479    0.628947565955579  0.0000
  Si     Si        0.674749645734814    0.243225779770137    0.399870445561742  0.0000
  Si     Si        0.705636387809422    0.640878036481423    0.414724843402974  0.0000
  Si     Si        0.354050083380328    0.685701604813358    0.635110012997982  0.0000
  Si     Si        0.894842093458772    0.943436714969076    0.351735052187118  0.0000
  Si     Si        0.125462397579281    0.983418221543368    0.643364973198526  0.0000
  Si     Si        0.923583233521001    0.950324886073256    0.847224121881709  0.0000
  O3     O3        0.316695246381046    0.241941041567292    0.473680484484807  0.0000
  O3     O3        0.685644992206958    0.187845100429519    0.553491617769166  0.0000
  O2     O2        0.725236693763061    0.692424948620691    0.571140043554497  0.0000
  O2     O2        0.340480122245540    0.734733241231150    0.479743434070886  0.0000
  O3     O3        0.269445108886332    0.515555266683684    0.276345498170981  0.0000
  O3     O3        0.758478747120318    0.452881332104177    0.759175402866045  0.0000
  O3     O3        0.500707206106214    0.247453364395177    0.303094742254824  0.0000
  O3     O3        0.499633782758987    0.244472821135637    0.724760548152542  0.0000
  O2     O2        0.533963499557894    0.690031379545618    0.723739826647275  0.0000
  O2     O2        0.528851429581785    0.677715709084921    0.326744603972806  0.0000
  O1     O1        0.171942015800138    0.190859403804733    0.193253682740642  0.0000
  O3     O3        0.803663555648903    0.110853828764887    0.839398641315970  0.0000
  O2     O2        0.825744953823373    0.774404028679719    0.828907026430233  0.0000
  O3     O3        0.272130561710165    0.854412479797167    0.231691288103603  0.0000
  O2     O2        0.288346206672755    0.493383813165931    0.642951602582614  0.0000
  O2     O2        0.747375830385631    0.436307255340381    0.403768800752148  0.0000
  O2     O2        0.205832394833922    0.170586928540085    0.675079240314887  0.0000
  O2     O2        0.774732122492296    0.105251373666049    0.339388746526070  0.0000
  O2     O2        0.817897992579593    0.757789500099912    0.358014523650837  0.0000
  O2     O2        0.253981708157958    0.827216663566120    0.693078596852827  0.0000
  O2     O2        0.044352172270844    0.966368679922921    0.481800691545767  0.0000
  O3     O3        0.952919643965473    0.939349763840018    0.218793831191124  0.0000
  O2     O2        0.998212610602318    0.974423322941803    0.723138305154671  0.0000
  O3     O3        0.056164553941441    0.944438948729566    0.987459456382732  0.0000
