data_c00044.vasp
_audit_creation_method             Generated by GULP
_audit_author_name                 Salvador R. G. Balestra
_symmetry_space_group_name_H-M     'P 1             '
_symmetry_Int_Tables_number        1

loop_
_symmetry_equiv_pos_site_id
_symmetry_equiv_pos_as_xyz
_cell_length_a                        9.0437
_cell_length_b                        7.6047
_cell_length_c                       10.3935
_cell_angle_alpha                   91.7988
_cell_angle_beta                   108.4712
_cell_angle_gamma                   87.5591

loop_
_atom_site_label
_atom_site_type_symbol
_atom_site_fract_x
_atom_site_fract_y
_atom_site_fract_z
_atom_site_charge
  Ge     Ge        0.331050000000005    0.296920000000000    0.607380000000035  0.0000
  Ge     Ge        0.678465972551948    0.206606564479976    0.383104054080953  0.0000
  Ge     Ge        0.719651942744920    0.619101808839043    0.381266342556171  0.0000
  Si     Si        0.311254338379219    0.272685221964828    0.300403543682457  0.0000
  Si     Si        0.701488330383262    0.242123506667225    0.692871591081266  0.0000
  Si     Si        0.728075057397873    0.644212695545102    0.691689739727401  0.0000
  Si     Si        0.354252642457773    0.672549340760435    0.297347155011598  0.0000
  Si     Si        0.368430373649136    0.699994387463094    0.603496181590591  0.0000
  Si     Si        0.910397662128830    0.920376251617464    0.337821499667335  0.0000
  Si     Si        0.133543692580628    0.995334853195565    0.637974262753882  0.0000
  Si     Si        0.116899579213259    0.965495063011997    0.148552252753007  0.0000
  Si     Si        0.933649008088113    0.947849929744287    0.834649115330676  0.0000
  O3     O3        0.257967204194776    0.277515519381193    0.432834181407776  0.0000
  O3     O3        0.748377134054532    0.203029400823822    0.558358474554599  0.0000
  O3     O3        0.772644456910301    0.645273243418400    0.555410045022977  0.0000
  O2     O2        0.319652564317274    0.701247787543018    0.439984617172892  0.0000
  O2     O2        0.317297435375516    0.470098502427794    0.247704963353591  0.0000
  O2     O2        0.736867853255269    0.444755355946896    0.742934562215102  0.0000
  O3     O3        0.481127473929115    0.181608897636268    0.337947507319140  0.0000
  O3     O3        0.520155474618755    0.212878880617967    0.666058558025997  0.0000
  O2     O2        0.553355358858085    0.725729576652921    0.664011628758180  0.0000
  O3     O3        0.531776854620794    0.707078756220595    0.313904935317869  0.0000
  O2     O2        0.193611543485283    0.155391810966824    0.183591914062468  0.0000
  O2     O2        0.809521231883034    0.111910016494417    0.806747732785699  0.0000
  O2     O2        0.844729469566341    0.764609008282726    0.805614359841009  0.0000
  O2     O2        0.244707693101330    0.806277764631445    0.189358997331579  0.0000
  O3     O3        0.325175200354458    0.516964613301119    0.651449032569689  0.0000
  O1     O1        0.723500555775175    0.404107542360638    0.333166559926997  0.0000
  O3     O3        0.206365928860223    0.186156052884319    0.668960539830493  0.0000
  O3     O3        0.751185506143388    0.036487873993202    0.307398976837691  0.0000
  O3     O3        0.861283160461715    0.720659234535932    0.334766381086935  0.0000
  O2     O2        0.280191338811924    0.859270017607835    0.655235828440045  0.0000
  O2     O2        0.017770584955591    0.986076486700325    0.485217152653665  0.0000
  O2     O2        0.989077672341050    0.946946080500387    0.223475247828723  0.0000
  O2     O2        0.047496795197560    0.953104167571485    0.744362191837347  0.0000
  O2     O2        0.036628294094405    0.953919727977520    0.989422609182121  0.0000
