data_c00038.vasp
_audit_creation_method             Generated by GULP
_audit_author_name                 Salvador R. G. Balestra
_symmetry_space_group_name_H-M     'P 1             '
_symmetry_Int_Tables_number        1

loop_
_symmetry_equiv_pos_site_id
_symmetry_equiv_pos_as_xyz
_cell_length_a                        9.1650
_cell_length_b                        7.6906
_cell_length_c                       10.2558
_cell_angle_alpha                   88.0875
_cell_angle_beta                   109.0099
_cell_angle_gamma                   90.9678

loop_
_atom_site_label
_atom_site_type_symbol
_atom_site_fract_x
_atom_site_fract_y
_atom_site_fract_z
_atom_site_charge
  Ge     Ge        0.313819999999964    0.296860000000038    0.309830000000034  0.0000
  Ge     Ge        0.882026692320010    0.022749970473664    0.376404629147989  0.0000
  Ge     Ge        0.137881169362590    0.981203590830745    0.687778508843186  0.0000
  Si     Si        0.705706594393106    0.303793134822335    0.697988252192020  0.0000
  Si     Si        0.692460490254858    0.703968544870774    0.700516583806847  0.0000
  Si     Si        0.297783110668517    0.703385728010756    0.315849958525847  0.0000
  Si     Si        0.352934885554087    0.278388249177592    0.628034897567209  0.0000
  Si     Si        0.674103093752395    0.328829724761262    0.383425471281769  0.0000
  Si     Si        0.655740886166671    0.724615065964220    0.387772057218480  0.0000
  Si     Si        0.336824869617716    0.684116129124589    0.626502750231417  0.0000
  Si     Si        0.086806531811309    0.005920664864995    0.172940657694787  0.0000
  Si     Si        0.915016014730445    0.996153668359365    0.861054584317967  0.0000
  O3     O3        0.310719216937729    0.222966262085688    0.470323906480971  0.0000
  O2     O2        0.702956518750421    0.272122049277874    0.543499235800840  0.0000
  O2     O2        0.699685724581817    0.762180982599861    0.550543330486057  0.0000
  O2     O2        0.289121633956063    0.749698611210791    0.466380224779651  0.0000
  O3     O3        0.246699834942689    0.507502404096716    0.281755585747779  0.0000
  O2     O2        0.749522353821483    0.504669871526193    0.737323071758506  0.0000
  O3     O3        0.497357533340821    0.289281802901042    0.299839041200278  0.0000
  O2     O2        0.536415586378882    0.260106917050659    0.706364695545013  0.0000
  O2     O2        0.518393295951509    0.721048351885039    0.702498613283269  0.0000
  O2     O2        0.472096537742441    0.734456516328663    0.315680762235918  0.0000
  O3     O3        0.198360950882497    0.170672096320550    0.181699149032269  0.0000
  O2     O2        0.830912005526951    0.177945465403947    0.800542178512755  0.0000
  O2     O2        0.802635085621144    0.831075917623553    0.810257543681611  0.0000
  O2     O2        0.187512394280223    0.830092720538790    0.200494847668706  0.0000
  O2     O2        0.303052554797586    0.478378290386494    0.631237857544078  0.0000
  O2     O2        0.712092902530506    0.532406921821642    0.370070722047450  0.0000
  O3     O3        0.262191375820053    0.156069908950228    0.702963447266979  0.0000
  O3     O3        0.788574272462674    0.220485557219445    0.331824959605199  0.0000
  O3     O3        0.742142780336150    0.862112492844195    0.321072603805502  0.0000
  O3     O3        0.236622512390233    0.788480548185983    0.696741437512451  0.0000
  O1     O1        0.975506274297959    0.997035374821940    0.548563465311144  0.0000
  O3     O3        0.014600926473099    0.020997346510318    0.293726804326707  0.0000
  O3     O3        0.071910115118704    0.978873851895847    0.827890722154797  0.0000
  O2     O2        0.954853191622479    0.998551296596290    0.025835962104814  0.0000
