data_c00051.vasp
_audit_creation_method             Generated by GULP
_audit_author_name                 Salvador R. G. Balestra
_symmetry_space_group_name_H-M     'P 1             '
_symmetry_Int_Tables_number        1

loop_
_symmetry_equiv_pos_site_id
_symmetry_equiv_pos_as_xyz
_cell_length_a                        9.0683
_cell_length_b                        7.6434
_cell_length_c                       10.1382
_cell_angle_alpha                   91.2885
_cell_angle_beta                   107.2126
_cell_angle_gamma                   88.3281

loop_
_atom_site_label
_atom_site_type_symbol
_atom_site_fract_x
_atom_site_fract_y
_atom_site_fract_z
_atom_site_charge
  Ge     Ge        0.331050000000005    0.296920000000000    0.607380000000035  0.0000
  Ge     Ge        0.368895243290371    0.714040838554446    0.610470213696918  0.0000
  Ge     Ge        0.121246132836629    0.972830814650039    0.166327694204114  0.0000
  Si     Si        0.333440240641256    0.276338888172154    0.298587717539534  0.0000
  Si     Si        0.693908842300707    0.256285379671490    0.698257902694867  0.0000
  Si     Si        0.725623711401093    0.651848789854512    0.701394078900704  0.0000
  Si     Si        0.358682126795239    0.683958432042002    0.297593694572283  0.0000
  Si     Si        0.686378694244886    0.243852181055411    0.384653631839586  0.0000
  Si     Si        0.709191831589397    0.638466605291963    0.385095044574368  0.0000
  Si     Si        0.914922817891839    0.941835989498851    0.375686257075299  0.0000
  Si     Si        0.139853971800803    0.001572196774964    0.673004421279936  0.0000
  Si     Si        0.924428113893196    0.959976887505730    0.852550577189360  0.0000
  O3     O3        0.313994466503569    0.216328720210131    0.442891068678495  0.0000
  O2     O2        0.695494949960786    0.211026738710347    0.542681249593401  0.0000
  O2     O2        0.717368401107659    0.680466768572690    0.542557934613819  0.0000
  O3     O3        0.352212739530561    0.769422459379753    0.442292357466912  0.0000
  O2     O2        0.300353073535863    0.484829085109036    0.287807640684246  0.0000
  O2     O2        0.765070764636941    0.448536975686208    0.742137958283438  0.0000
  O2     O2        0.508177344546149    0.232756320032825    0.293686169840869  0.0000
  O3     O3        0.520828994090969    0.255893201616604    0.705572817963062  0.0000
  O3     O3        0.558744693313347    0.703392136270710    0.713068504125780  0.0000
  O2     O2        0.535053741013976    0.680931190982819    0.291019734873267  0.0000
  O3     O3        0.215837719016020    0.168847368045949    0.178513181275281  0.0000
  O2     O2        0.796777803699140    0.112529201087092    0.798559900737841  0.0000
  O2     O2        0.856768189733939    0.769746788333741    0.800879561448500  0.0000
  O3     O3        0.251534234873446    0.799270878173103    0.176239500340697  0.0000
  O1     O1        0.288540460752048    0.514972942506560    0.610932060279360  0.0000
  O2     O2        0.752009960472943    0.434238820149514    0.367316699431933  0.0000
  O3     O3        0.196313011290349    0.196409941887462    0.666791107754482  0.0000
  O2     O2        0.788358966638067    0.099693437929058    0.332071749371866  0.0000
  O2     O2        0.827989644924534    0.756924490568535    0.338935305677686  0.0000
  O3     O3        0.286415969320918    0.874187592131063    0.688147527599161  0.0000
  O2     O2        0.000693668609600    0.948968483189810    0.538909184661535  0.0000
  O3     O3        0.041095200748921    0.952931774614874    0.298834775521431  0.0000
  O2     O2        0.076953795166143    0.988798188851016    0.805342581057578  0.0000
  O3     O3        0.973075000404534    0.964585400541826    0.016130884206765  0.0000
