data_c00004.vasp
_audit_creation_method             Generated by GULP
_audit_author_name                 Salvador R. G. Balestra
_symmetry_space_group_name_H-M     'P 1             '
_symmetry_Int_Tables_number        1

loop_
_symmetry_equiv_pos_site_id
_symmetry_equiv_pos_as_xyz
_cell_length_a                        9.1044
_cell_length_b                        7.6826
_cell_length_c                       10.2394
_cell_angle_alpha                   90.6988
_cell_angle_beta                   108.2559
_cell_angle_gamma                   88.8025

loop_
_atom_site_label
_atom_site_type_symbol
_atom_site_fract_x
_atom_site_fract_y
_atom_site_fract_z
_atom_site_charge
  Ge     Ge        0.313819999999964    0.296860000000038    0.309830000000034  0.0000
  Ge     Ge        0.704402814314053    0.263697825999376    0.710786563721508  0.0000
  Ge     Ge        0.897629077671571    0.958017160873473    0.346886841085617  0.0000
  Si     Si        0.721491509909409    0.671896353901868    0.712100942978974  0.0000
  Si     Si        0.341668892293517    0.698114158060975    0.321567825990663  0.0000
  Si     Si        0.345385480923087    0.298112339133035    0.634879596075316  0.0000
  Si     Si        0.672910460754326    0.254387746973222    0.394257422230549  0.0000
  Si     Si        0.696859892986103    0.659514008022175    0.405221467218013  0.0000
  Si     Si        0.364554473302119    0.693529354684756    0.635620203776272  0.0000
  Si     Si        0.143806742828935    0.993351753003998    0.649562157350485  0.0000
  Si     Si        0.109735147873838    0.986556129828555    0.159271374875329  0.0000
  Si     Si        0.938195964384871    0.968649425325108    0.847216810714810  0.0000
  O3     O3        0.324506656226568    0.256125898145133    0.476908936699086  0.0000
  O3     O3        0.697729906009024    0.190119221680013    0.548935853636733  0.0000
  O2     O2        0.728377423671784    0.725962852951265    0.561907824478270  0.0000
  O2     O2        0.336385682863555    0.729943897155702    0.475683409436051  0.0000
  O3     O3        0.268479535859580    0.513758494300339    0.268651527411323  0.0000
  O3     O3        0.771268028382299    0.473540370578520    0.741898089423135  0.0000
  O3     O3        0.495927151960796    0.246952206432489    0.300337346512062  0.0000
  O3     O3        0.520526172381839    0.258808574558037    0.724577727603097  0.0000
  O2     O2        0.546873399958237    0.703927523585737    0.717612865640032  0.0000
  O2     O2        0.518041034645129    0.698545765996596    0.319691320840874  0.0000
  O3     O3        0.168446168428827    0.181232464519364    0.198515305499889  0.0000
  O3     O3        0.825693978738428    0.134051708063950    0.834879283692295  0.0000
  O2     O2        0.836246748619011    0.795197875515958    0.823595175225278  0.0000
  O2     O2        0.253379553857788    0.856723771301330    0.229193692136912  0.0000
  O2     O2        0.303736566985251    0.501734813575002    0.652883582529816  0.0000
  O2     O2        0.730909808160860    0.453565914613105    0.405174385544775  0.0000
  O2     O2        0.228966710032908    0.178783904148870    0.683959811476764  0.0000
  O3     O3        0.773455048020925    0.133964352947804    0.326384780045684  0.0000
  O3     O3        0.806548453691614    0.762142946637691    0.341630808860274  0.0000
  O2     O2        0.270563811798511    0.836010801082534    0.695209935943404  0.0000
  O3     O3        0.056950067693511    0.979234230018824    0.488766930526415  0.0000
  O3     O3        0.962717258924254    0.948802926671726    0.206107663848667  0.0000
  O2     O2        0.022639637038225    0.983431354101459    0.732068396382882  0.0000
  O2     O2        0.065048066563724    0.960444344317969    0.995689605691040  0.0000
