data_c00040.vasp
_audit_creation_method             Generated by GULP
_audit_author_name                 Salvador R. G. Balestra
_symmetry_space_group_name_H-M     'P 1             '
_symmetry_Int_Tables_number        1

loop_
_symmetry_equiv_pos_site_id
_symmetry_equiv_pos_as_xyz
_cell_length_a                        9.1058
_cell_length_b                        7.7145
_cell_length_c                       10.0799
_cell_angle_alpha                   88.5705
_cell_angle_beta                   106.8699
_cell_angle_gamma                   90.6053

loop_
_atom_site_label
_atom_site_type_symbol
_atom_site_fract_x
_atom_site_fract_y
_atom_site_fract_z
_atom_site_charge
  Ge     Ge        0.313819999999964    0.296860000000038    0.309830000000034  0.0000
  Ge     Ge        0.890910573082115    0.010172945121969    0.398460949303390  0.0000
  Ge     Ge        0.901713069431648    0.989011247580472    0.875077811124686  0.0000
  Si     Si        0.684258318793343    0.294038774498878    0.709675282848903  0.0000
  Si     Si        0.676171185890327    0.696912372262188    0.712184284766856  0.0000
  Si     Si        0.306911268024836    0.698828018222515    0.315969452423907  0.0000
  Si     Si        0.331706065549977    0.282292633745971    0.633248155582557  0.0000
  Si     Si        0.673770639504188    0.311908170336721    0.398044899689696  0.0000
  Si     Si        0.663429534732681    0.712475955154179    0.402561608432983  0.0000
  Si     Si        0.321930634442234    0.681985779114898    0.631182668794848  0.0000
  Si     Si        0.127118178447392    0.981486120787825    0.697907947297112  0.0000
  Si     Si        0.092689762413922    0.000380867420514    0.188560138301011  0.0000
  O3     O3        0.299295417384383    0.242743777328230    0.472909543225305  0.0000
  O2     O2        0.691906190457290    0.247980364910902    0.556710304372019  0.0000
  O2     O2        0.693678350161454    0.762025675625186    0.563819203974576  0.0000
  O2     O2        0.287799124201221    0.725681925408477    0.468575289661576  0.0000
  O3     O3        0.256031867953801    0.508017435759665    0.267305273653190  0.0000
  O2     O2        0.724141513133510    0.496000300668545    0.739253501892089  0.0000
  O3     O3        0.501195073382441    0.275843856025734    0.307727001714778  0.0000
  O2     O2        0.510984223165715    0.256020096929004    0.714796264495674  0.0000
  O2     O2        0.499503492256900    0.718804083302600    0.710967234810149  0.0000
  O2     O2        0.483878564756831    0.732169727921309    0.322115137200577  0.0000
  O3     O3        0.196274029403616    0.169738979964057    0.186181558735848  0.0000
  O3     O3        0.803812135945008    0.179866636418042    0.821543697878134  0.0000
  O3     O3        0.783972413488221    0.811054917479862    0.829256284127754  0.0000
  O2     O2        0.203377134334845    0.833393565740850    0.206345699487040  0.0000
  O2     O2        0.281861700369707    0.479933041821310    0.651388664774820  0.0000
  O2     O2        0.713618008463959    0.515232786599292    0.391983422300975  0.0000
  O2     O2        0.233558176818004    0.149802113960605    0.698657081178103  0.0000
  O3     O3        0.792197261553361    0.202571276644092    0.346723559783351  0.0000
  O3     O3        0.763672412411745    0.840591351508536    0.339782351796635  0.0000
  O2     O2        0.216445248323324    0.803536403058755    0.691574777130422  0.0000
  O3     O3        0.969720879840754    0.994361416963600    0.575215186682120  0.0000
  O3     O3        0.036225264809766    0.008240794036471    0.324729274513969  0.0000
  O3     O3        0.072999296890400    0.976839764208456    0.835191844433498  0.0000
  O3     O3        0.950935925969138    0.989102110827321    0.054085857770214  0.0000
