data_c00018.vasp
_audit_creation_method             Generated by GULP
_audit_author_name                 Salvador R. G. Balestra
_symmetry_space_group_name_H-M     'P 1             '
_symmetry_Int_Tables_number        1

loop_
_symmetry_equiv_pos_site_id
_symmetry_equiv_pos_as_xyz
_cell_length_a                        9.0541
_cell_length_b                        7.6628
_cell_length_c                       10.2484
_cell_angle_alpha                   89.7252
_cell_angle_beta                   108.8961
_cell_angle_gamma                   88.1817

loop_
_atom_site_label
_atom_site_type_symbol
_atom_site_fract_x
_atom_site_fract_y
_atom_site_fract_z
_atom_site_charge
  Ge     Ge        0.313819999999964    0.296860000000038    0.309830000000034  0.0000
  Ge     Ge        0.326228451817530    0.306647263010239    0.627402021384900  0.0000
  Ge     Ge        0.367667744667078    0.718961216481766    0.634490867521932  0.0000
  Si     Si        0.687540115579436    0.261636933965598    0.707741035062216  0.0000
  Si     Si        0.729556919020866    0.651136393991046    0.719034074221382  0.0000
  Si     Si        0.341392406779227    0.710395804465934    0.320347783601886  0.0000
  Si     Si        0.672401514295770    0.268478223071143    0.393895598782850  0.0000
  Si     Si        0.698243004462116    0.662475400826228    0.403830365461906  0.0000
  Si     Si        0.906470687495821    0.962178541001725    0.385037519367040  0.0000
  Si     Si        0.143218242027934    0.004689320231217    0.687323764698966  0.0000
  Si     Si        0.099438212687215    0.997046298712229    0.176058353816563  0.0000
  Si     Si        0.924916042847233    0.957125980979251    0.862071207392525  0.0000
  O1     O1        0.303264480394356    0.230846230831211    0.465520849745482  0.0000
  O2     O2        0.659083635182205    0.235151864521273    0.545342045922120  0.0000
  O2     O2        0.720650984167145    0.699574312634896    0.563180295206102  0.0000
  O3     O3        0.346720962079329    0.783063806985348    0.467954148285065  0.0000
  O3     O3        0.272662254483102    0.519662342881001    0.295426404911530  0.0000
  O2     O2        0.773590022719780    0.445197591006999    0.752757153058549  0.0000
  O3     O3        0.497162364448542    0.258386306539960    0.292696539294653  0.0000
  O3     O3        0.520497618951864    0.268595055874756    0.728033537312538  0.0000
  O3     O3        0.561954929800827    0.691891923118889    0.732517429968666  0.0000
  O2     O2        0.518118602628602    0.702804941750184    0.313582604102873  0.0000
  O3     O3        0.175459628182207    0.183767382832946    0.186241831777731  0.0000
  O2     O2        0.790661586075770    0.102566595168729    0.794617478120927  0.0000
  O2     O2        0.860480988663437    0.764131657938574    0.824537936851286  0.0000
  O2     O2        0.237503136510846    0.848095754274056    0.205648416609704  0.0000
  O1     O1        0.280242782344378    0.523828396356993    0.629179663213068  0.0000
  O2     O2        0.740906661725607    0.459855015111218    0.384654310695400  0.0000
  O3     O3        0.195337337438429    0.201127456884374    0.687996423194527  0.0000
  O2     O2        0.788889837312886    0.129614726253813    0.359487027309420  0.0000
  O2     O2        0.809663269619086    0.785175185979007    0.352586838130480  0.0000
  O3     O3        0.294930109081355    0.879213637461739    0.714866664448598  0.0000
  O2     O2        0.019325691650456    0.950935443370347    0.541639388002924  0.0000
  O2     O2        0.005842735261686    0.975183128959276    0.283496033517969  0.0000
  O2     O2        0.071146752549275    0.982011121594791    0.809455793180788  0.0000
  O2     O2        0.977509572600022    0.974206896464829    0.025257444439778  0.0000
