data_c00060.vasp
_audit_creation_method             Generated by GULP
_audit_author_name                 Salvador R. G. Balestra
_symmetry_space_group_name_H-M     'P 1             '
_symmetry_Int_Tables_number        1

loop_
_symmetry_equiv_pos_site_id
_symmetry_equiv_pos_as_xyz
_cell_length_a                        9.1509
_cell_length_b                        7.6959
_cell_length_c                       10.2472
_cell_angle_alpha                   89.4745
_cell_angle_beta                   107.3681
_cell_angle_gamma                   90.7844

loop_
_atom_site_label
_atom_site_type_symbol
_atom_site_fract_x
_atom_site_fract_y
_atom_site_fract_z
_atom_site_charge
  Ge     Ge        0.879680000000008    0.000000000000000    0.350159999999960  0.0000
  Ge     Ge        0.099353722907690    0.978220723437127    0.161388148701603  0.0000
  Ge     Ge        0.907767601926736    0.991475810484984    0.839949810244874  0.0000
  Si     Si        0.329983419876506    0.273815206147743    0.327608552048108  0.0000
  Si     Si        0.690621128321133    0.295266955666307    0.721129777667513  0.0000
  Si     Si        0.673741772138889    0.697177967055575    0.717135014027710  0.0000
  Si     Si        0.308088180963693    0.672629314731902    0.323361118335330  0.0000
  Si     Si        0.336653695195275    0.272540321857637    0.635314790474768  0.0000
  Si     Si        0.681992815615299    0.300262757128301    0.416721612388396  0.0000
  Si     Si        0.659821628833046    0.704769785641900    0.411129166210249  0.0000
  Si     Si        0.320615058593341    0.668377339945223    0.632455563625246  0.0000
  Si     Si        0.118696986639925    0.972757954089154    0.641550743368461  0.0000
  O2     O2        0.307571976870384    0.234836632469815    0.475417986550300  0.0000
  O2     O2        0.715069915323735    0.246037463586227    0.575691409629025  0.0000
  O2     O2        0.691806753845305    0.756044354493792    0.570102285655887  0.0000
  O2     O2        0.287793211634528    0.704756338043259    0.471972106940347  0.0000
  O2     O2        0.279858488588077    0.470625823224022    0.283628106115187  0.0000
  O2     O2        0.725835351525705    0.498560178002595    0.750901181552243  0.0000
  O2     O2        0.507128130748902    0.249017764711222    0.335969510927924  0.0000
  O2     O2        0.515537597859107    0.251517197986804    0.716110200779191  0.0000
  O2     O2        0.496711049337895    0.712874421576721    0.712553132539397  0.0000
  O2     O2        0.480872791478406    0.728174235763004    0.329734199949441  0.0000
  O3     O3        0.227847673517753    0.146615910192849    0.217647607474666  0.0000
  O3     O3        0.805474713169833    0.181468355589968    0.834581314938127  0.0000
  O3     O3        0.779373985574332    0.819828507966186    0.830109610848274  0.0000
  O3     O3        0.185542838919744    0.780767480131716    0.213131497381469  0.0000
  O2     O2        0.283326184528756    0.467077543392888    0.657636817264265  0.0000
  O2     O2        0.709019758508694    0.505799839259336    0.402982476646732  0.0000
  O2     O2        0.236700453940029    0.135503843179207    0.692743131074323  0.0000
  O3     O3        0.794561888282975    0.197533965974621    0.355502517205801  0.0000
  O3     O3        0.755306417790690    0.827965341725419    0.342414139536786  0.0000
  O2     O2        0.211966499429614    0.792763157135802    0.687149518944589  0.0000
  O3     O3        0.049082050597490    0.978982165927096    0.478560542451247  0.0000
  O1     O1        0.934282439844841    0.999425745474130    0.204217069947437  0.0000
  O3     O3        0.980544190050251    0.981823293369938    0.703432080020689  0.0000
  O1     O1        0.053081186081839    0.981621048588639    0.986522039287534  0.0000
