data_c00037.vasp
_audit_creation_method             Generated by GULP
_audit_author_name                 Salvador R. G. Balestra
_symmetry_space_group_name_H-M     'P 1             '
_symmetry_Int_Tables_number        1

loop_
_symmetry_equiv_pos_site_id
_symmetry_equiv_pos_as_xyz
_cell_length_a                        9.0258
_cell_length_b                        7.6799
_cell_length_c                       10.2863
_cell_angle_alpha                   89.4688
_cell_angle_beta                   108.1827
_cell_angle_gamma                   88.7892

loop_
_atom_site_label
_atom_site_type_symbol
_atom_site_fract_x
_atom_site_fract_y
_atom_site_fract_z
_atom_site_charge
  Ge     Ge        0.313819999999964    0.296860000000038    0.309830000000034  0.0000
  Ge     Ge        0.366147295443228    0.699629130087911    0.638881698019082  0.0000
  Ge     Ge        0.922764771644931    0.953714230068562    0.870723555491685  0.0000
  Si     Si        0.684015029303797    0.250376674317682    0.705094373444067  0.0000
  Si     Si        0.727241455752543    0.641858069964920    0.722717560046069  0.0000
  Si     Si        0.342982596458865    0.704951368805104    0.324506820989685  0.0000
  Si     Si        0.325034709918349    0.297354279474248    0.619811651738437  0.0000
  Si     Si        0.677929141083044    0.261220271942162    0.398092123633825  0.0000
  Si     Si        0.699491356264647    0.657572632660293    0.410135300035563  0.0000
  Si     Si        0.907254017507962    0.961186821615454    0.393368799389432  0.0000
  Si     Si        0.143888140849018    0.994718455028729    0.690553887904261  0.0000
  Si     Si        0.103449655346232    0.990840569708980    0.187547607956263  0.0000
  O3     O3        0.300411080173290    0.235258805037980    0.466880974388788  0.0000
  O2     O2        0.684936226715706    0.208326203732988    0.552070605402743  0.0000
  O2     O2        0.716516206204000    0.694403954450512    0.567440980643017  0.0000
  O3     O3        0.344432590416273    0.765563592449493    0.473469243217824  0.0000
  O3     O3        0.270692052468195    0.516824495804159    0.286663722559870  0.0000
  O2     O2        0.765520993818183    0.435428245752955    0.749719856718206  0.0000
  O3     O3        0.500805389900155    0.254927169939686    0.303032361307742  0.0000
  O2     O2        0.507009682230365    0.267584301559039    0.706797570164579  0.0000
  O3     O3        0.559380956932618    0.689945034003678    0.737535294052295  0.0000
  O2     O2        0.520839280629015    0.697254154028988    0.319659728878291  0.0000
  O3     O3        0.178334778150331    0.179059346892910    0.190281981345036  0.0000
  O3     O3        0.768260427815648    0.098134234931500    0.806704514547730  0.0000
  O3     O3        0.862896711691254    0.744473412042058    0.826799838779883  0.0000
  O2     O2        0.244838717937830    0.847703011556916    0.213825663664392  0.0000
  O3     O3        0.281286045705242    0.497926511850121    0.627672968568047  0.0000
  O2     O2        0.742673321617720    0.455885284711763    0.392002053832350  0.0000
  O2     O2        0.218670534905763    0.181062578189243    0.683331879453688  0.0000
  O2     O2        0.788555710390762    0.127055766190419    0.350234967566786  0.0000
  O2     O2        0.812422647498056    0.782133491708793    0.360069586564049  0.0000
  O3     O3        0.272378859502157    0.841577019673447    0.715637425546404  0.0000
  O2     O2        0.000595811139774    0.960065712439020    0.554089467250693  0.0000
  O2     O2        0.025472504225977    0.967886843282234    0.307315480330885  0.0000
  O3     O3        0.079370514158513    0.002662365607878    0.817895036120793  0.0000
  O3     O3        0.974006987714529    0.963066228653958    0.045418126161930  0.0000
