data_c00014.vasp
_audit_creation_method             Generated by GULP
_audit_author_name                 Salvador R. G. Balestra
_symmetry_space_group_name_H-M     'P 1             '
_symmetry_Int_Tables_number        1

loop_
_symmetry_equiv_pos_site_id
_symmetry_equiv_pos_as_xyz
_cell_length_a                        8.9720
_cell_length_b                        7.6518
_cell_length_c                       10.0850
_cell_angle_alpha                   90.6574
_cell_angle_beta                   105.4393
_cell_angle_gamma                   88.4464

loop_
_atom_site_label
_atom_site_type_symbol
_atom_site_fract_x
_atom_site_fract_y
_atom_site_fract_z
_atom_site_charge
  Ge     Ge        0.313819999999964    0.296860000000038    0.309830000000034  0.0000
  Ge     Ge        0.348514368140738    0.711867575118270    0.320359277812398  0.0000
  Ge     Ge        0.101792726972782    0.994632971405765    0.169240460366134  0.0000
  Si     Si        0.678895719166706    0.260470921388737    0.708327634604534  0.0000
  Si     Si        0.701870861962084    0.655125468921348    0.716096270140754  0.0000
  Si     Si        0.324529661844535    0.292319853321624    0.625087331793450  0.0000
  Si     Si        0.678307996772615    0.253159268100598    0.395305426477484  0.0000
  Si     Si        0.705778421488396    0.648613803873516    0.403386753708951  0.0000
  Si     Si        0.350895491472821    0.699303940210833    0.635080761311135  0.0000
  Si     Si        0.913553250822514    0.954594254588916    0.395074968847630  0.0000
  Si     Si        0.132066545770125    0.994421920559516    0.691252340222134  0.0000
  Si     Si        0.900822859886160    0.962471795100925    0.865155464294476  0.0000
  O3     O3        0.298349499477602    0.229394906528735    0.469683545501540  0.0000
  O2     O2        0.685209142233919    0.217004129323058    0.554106490507723  0.0000
  O2     O2        0.701975981393319    0.686228000114710    0.559862413810631  0.0000
  O3     O3        0.340216723076131    0.771215061550104    0.484935002671872  0.0000
  O1     O1        0.269191014105085    0.511436285215119    0.285730313125564  0.0000
  O2     O2        0.745728375826581    0.452372552318132    0.756062214478360  0.0000
  O3     O3        0.503125173887041    0.245740757535564    0.306052832579021  0.0000
  O2     O2        0.501227024914759    0.255224054919321    0.712861810323351  0.0000
  O2     O2        0.528733158323399    0.699932075465725    0.728032921207515  0.0000
  O3     O3        0.538058184879435    0.696974499731240    0.309970304501601  0.0000
  O1     O1        0.180640911393719    0.195693382581959    0.181685905602144  0.0000
  O2     O2        0.777580388662802    0.118544370604708    0.811816771427228  0.0000
  O2     O2        0.826489072279299    0.775887924622058    0.816137674159104  0.0000
  O1     O1        0.257020784623813    0.851795097105942    0.194367099859825  0.0000
  O2     O2        0.287100784230302    0.501333707497125    0.627492313130635  0.0000
  O2     O2        0.746255544799722    0.444525223414053    0.382076343933002  0.0000
  O2     O2        0.215187363691909    0.180079040489631    0.694326748821980  0.0000
  O2     O2        0.784208545593283    0.109010808798364    0.343842721234607  0.0000
  O2     O2        0.834506085818845    0.765621083534404    0.366924825869081  0.0000
  O2     O2        0.250972854388395    0.829602757607862    0.706141594287508  0.0000
  O2     O2        0.989737833575337    0.979265285481708    0.557206865055135  0.0000
  O3     O3        0.041206348127576    0.956010033616138    0.315537906320923  0.0000
  O2     O2        0.059826323625212    0.990059019884474    0.821594487847974  0.0000
  O3     O3        0.948719841447598    0.964234313044527    0.028696162218469  0.0000
