data_c00023.vasp
_audit_creation_method             Generated by GULP
_audit_author_name                 Salvador R. G. Balestra
_symmetry_space_group_name_H-M     'P 1             '
_symmetry_Int_Tables_number        1

loop_
_symmetry_equiv_pos_site_id
_symmetry_equiv_pos_as_xyz
_cell_length_a                        8.9414
_cell_length_b                        7.6233
_cell_length_c                       10.2989
_cell_angle_alpha                   87.5634
_cell_angle_beta                   107.3121
_cell_angle_gamma                   92.1519

loop_
_atom_site_label
_atom_site_type_symbol
_atom_site_fract_x
_atom_site_fract_y
_atom_site_fract_z
_atom_site_charge
  Ge     Ge        0.313819999999964    0.296860000000038    0.309830000000034  0.0000
  Ge     Ge        0.685311910388644    0.367331884544026    0.396703832720382  0.0000
  Ge     Ge        0.641844554427480    0.779793399854094    0.394865736527007  0.0000
  Si     Si        0.684988232958769    0.335972539982685    0.705774008112148  0.0000
  Si     Si        0.654622914372098    0.730553666918478    0.706344725715909  0.0000
  Si     Si        0.279164131526695    0.710080127593532    0.310731750791539  0.0000
  Si     Si        0.318876020246375    0.286385714284845    0.618282460203271  0.0000
  Si     Si        0.289995869680604    0.685637768998963    0.615521869456373  0.0000
  Si     Si        0.885809587225779    0.067901810264540    0.368933513317276  0.0000
  Si     Si        0.099371334520920    0.987188227741277    0.668538630392553  0.0000
  Si     Si        0.079020047883007    0.012351894713174    0.163133365309548  0.0000
  Si     Si        0.881555188036618    0.020276264408704    0.855427907392016  0.0000
  O3     O3        0.260180701816442    0.259751572351783    0.457502408436214  0.0000
  O3     O3        0.738438446729790    0.349608389950292    0.572469135799701  0.0000
  O3     O3        0.703586150314343    0.770555012514307    0.570978729155390  0.0000
  O2     O2        0.232700149812420    0.703937183685748    0.451819516888123  0.0000
  O3     O3        0.288282328212660    0.517447307312651    0.261858094201221  0.0000
  O2     O2        0.695421768471080    0.531604139157954    0.764484949211202  0.0000
  O1     O1        0.507565356767157    0.260232153722902    0.337451193253660  0.0000
  O2     O2        0.505818813056141    0.261908140643489    0.669752460678408  0.0000
  O2     O2        0.468547402822151    0.756778775299318    0.673342281780855  0.0000
  O3     O3        0.443585327667115    0.814848811136424    0.339511624318354  0.0000
  O3     O3        0.209492929859006    0.165827119362870    0.179651787563598  0.0000
  O2     O2        0.799925140120384    0.207262527318288    0.814717759395285  0.0000
  O2     O2        0.750092995526610    0.865483844816474    0.818831870652034  0.0000
  O2     O2        0.152679176643046    0.820014473072295    0.194673117473374  0.0000
  O2     O2        0.277028273447030    0.479606361754371    0.655905582117200  0.0000
  O1     O1        0.678084686667220    0.580194909405728    0.341059139902008  0.0000
  O2     O2        0.232340134093966    0.141621813468819    0.690665745541475  0.0000
  O3     O3        0.832147337547662    0.266618762010616    0.353142663459084  0.0000
  O3     O3        0.731016611288372    0.943986529322071    0.324794179024211  0.0000
  O2     O2        0.179765990968016    0.798251084738396    0.676849913964422  0.0000
  O2     O2        0.967832768946287    0.008980054680185    0.525408477797888  0.0000
  O2     O2        0.997532139189855    0.049178426496708    0.277540801203960  0.0000
  O2     O2        0.020116230561732    0.992869880878267    0.788691892228433  0.0000
  O2     O2        0.954307304873084    0.015341073065977    0.016626368235783  0.0000
