data_c00049.vasp
_audit_creation_method             Generated by GULP
_audit_author_name                 Salvador R. G. Balestra
_symmetry_space_group_name_H-M     'P 1             '
_symmetry_Int_Tables_number        1

loop_
_symmetry_equiv_pos_site_id
_symmetry_equiv_pos_as_xyz
_cell_length_a                        9.1202
_cell_length_b                        7.6167
_cell_length_c                       10.5310
_cell_angle_alpha                   91.7719
_cell_angle_beta                   109.8813
_cell_angle_gamma                   87.8738

loop_
_atom_site_label
_atom_site_type_symbol
_atom_site_fract_x
_atom_site_fract_y
_atom_site_fract_z
_atom_site_charge
  Ge     Ge        0.331050000000005    0.296920000000000    0.607380000000035  0.0000
  Ge     Ge        0.372510152104343    0.710115891117262    0.609846855534644  0.0000
  Ge     Ge        0.901145648547887    0.923614720450569    0.348890711490673  0.0000
  Si     Si        0.309401747311448    0.268737795028899    0.300890343763928  0.0000
  Si     Si        0.697684254771565    0.242704209861647    0.686589191030953  0.0000
  Si     Si        0.735131520033439    0.642743146551059    0.686846106616737  0.0000
  Si     Si        0.339390992653523    0.674215280894268    0.299788716786238  0.0000
  Si     Si        0.666194908147807    0.223820075963306    0.381992158953002  0.0000
  Si     Si        0.696897190023959    0.624357101959027    0.380864369120935  0.0000
  Si     Si        0.145107258158440    0.995524138678147    0.654116234950638  0.0000
  Si     Si        0.104988195861926    0.962990832904400    0.151358031605860  0.0000
  Si     Si        0.937072850357362    0.950407152965857    0.834450178563494  0.0000
  O3     O3        0.297372763072526    0.223042755835666    0.443378093415236  0.0000
  O2     O2        0.692703465620801    0.178228752727840    0.537399829130505  0.0000
  O2     O2        0.730811493249208    0.686030146145623    0.536478437106470  0.0000
  O3     O3        0.334847441641318    0.751893828057405    0.441242095454253  0.0000
  O2     O2        0.272657915765520    0.477026371164854    0.275946052478449  0.0000
  O2     O2        0.771755415869320    0.436025832073304    0.718236902119750  0.0000
  O2     O2        0.482151014716668    0.220611950206203    0.298224545447003  0.0000
  O3     O3        0.526390991599544    0.250712505253429    0.695564301417954  0.0000
  O3     O3        0.569103229218824    0.692892477403176    0.697920380797060  0.0000
  O2     O2        0.515294560305606    0.669427659157407    0.297791216078484  0.0000
  O2     O2        0.185571494517164    0.151934305060049    0.188029711514012  0.0000
  O2     O2        0.803621802445952    0.102902431451477    0.791451571517402  0.0000
  O2     O2        0.866822766196175    0.757827103087735    0.793172492539642  0.0000
  O2     O2        0.233050202545479    0.802931198841289    0.184702952704442  0.0000
  O1     O1        0.291206627395701    0.514612992287987    0.619597872444564  0.0000
  O2     O2        0.730215667177588    0.416241037705770    0.374213563949110  0.0000
  O3     O3        0.195494029137195    0.194502639269939    0.657670556305656  0.0000
  O3     O3        0.759097501602154    0.087567097639899    0.320833451833120  0.0000
  O3     O3        0.807897553470667    0.724360773920665    0.322600925551139  0.0000
  O3     O3        0.303276744553147    0.878222482524477    0.686996103642949  0.0000
  O3     O3        0.034594562417465    0.927714204356902    0.508186099102491  0.0000
  O3     O3        0.983257140305846    0.937289250035009    0.226808089231941  0.0000
  O2     O2        0.066552004352165    0.978030631876875    0.766720526024259  0.0000
  O2     O2        0.014738916615707    0.959670508757473    0.993344456353433  0.0000
