data_c00058.vasp
_audit_creation_method             Generated by GULP
_audit_author_name                 Salvador R. G. Balestra
_symmetry_space_group_name_H-M     'P 1             '
_symmetry_Int_Tables_number        1

loop_
_symmetry_equiv_pos_site_id
_symmetry_equiv_pos_as_xyz
_cell_length_a                        9.0910
_cell_length_b                        7.7024
_cell_length_c                       10.1778
_cell_angle_alpha                   89.7332
_cell_angle_beta                   106.1828
_cell_angle_gamma                   90.6194

loop_
_atom_site_label
_atom_site_type_symbol
_atom_site_fract_x
_atom_site_fract_y
_atom_site_fract_z
_atom_site_charge
  Ge     Ge        0.331050000000005    0.296920000000000    0.607380000000035  0.0000
  Ge     Ge        0.108586615910209    0.003751020443177    0.141017426068551  0.0000
  Ge     Ge        0.901441457190228    0.011269643595502    0.821586627098421  0.0000
  Si     Si        0.334802434327820    0.298300848111227    0.297641618770305  0.0000
  Si     Si        0.691108960941499    0.319824216941930    0.699007136970307  0.0000
  Si     Si        0.673662813554737    0.717149842347351    0.692949169205967  0.0000
  Si     Si        0.323842170675430    0.701932868680915    0.296578345353625  0.0000
  Si     Si        0.687135254802218    0.318943801617123    0.389661134349336  0.0000
  Si     Si        0.676244305609656    0.719779042659241    0.386777155920233  0.0000
  Si     Si        0.319136130094109    0.700835609401532    0.600111886007848  0.0000
  Si     Si        0.886788262859691    0.018908733908587    0.328241219679641  0.0000
  Si     Si        0.108792123988168    0.998689197517210    0.618323155161260  0.0000
  O3     O3        0.314463845147297    0.234799836336440    0.441397144632898  0.0000
  O2     O2        0.704368557056233    0.271955423951054    0.547487883181528  0.0000
  O2     O2        0.693403935681490    0.768351482391790    0.544045536417680  0.0000
  O2     O2        0.303156041895202    0.753703869995564    0.443328588876855  0.0000
  O2     O2        0.284964836613911    0.498551411805352    0.270515562444689  0.0000
  O2     O2        0.732753564082135    0.521896216109907    0.729890362486421  0.0000
  O2     O2        0.513283527288375    0.282211767981631    0.301255427578244  0.0000
  O3     O3        0.518916217160136    0.280630795945306    0.702775453532405  0.0000
  O2     O2        0.495268801286562    0.724293263296692    0.687844384385725  0.0000
  O2     O2        0.500004570285428    0.739414001055321    0.298143312797811  0.0000
  O3     O3        0.229695194335626    0.181090153951204    0.180410931143771  0.0000
  O3     O3        0.808323838992989    0.207728201956854    0.810697143450307  0.0000
  O3     O3        0.766443048445721    0.846050377213279    0.807076246547131  0.0000
  O3     O3        0.208859217764842    0.813129319526143    0.183493337837775  0.0000
  O3     O3        0.266133676698379    0.505714767775406    0.612003763344406  0.0000
  O2     O2        0.730688564734084    0.521668792081946    0.375717448033249  0.0000
  O3     O3        0.214982413909630    0.165409671389315    0.672614545455586  0.0000
  O2     O2        0.797940466512939    0.198270189561727    0.332692306336646  0.0000
  O2     O2        0.778864675315949    0.850788480233585    0.326340014905295  0.0000
  O2     O2        0.215417601308684    0.829275629200483    0.658392753323020  0.0000
  O2     O2        0.040317560497527    0.012203389590490    0.453578053041872  0.0000
  O3     O3        0.943973149824163    0.017492161964746    0.193752228222423  0.0000
  O3     O3        0.970472396397623    0.984499686041206    0.681939340865839  0.0000
  O1     O1        0.046124648423370    0.999902622157298    0.966109822194077  0.0000
