data_c00043.vasp
_audit_creation_method             Generated by GULP
_audit_author_name                 Salvador R. G. Balestra
_symmetry_space_group_name_H-M     'P 1             '
_symmetry_Int_Tables_number        1

loop_
_symmetry_equiv_pos_site_id
_symmetry_equiv_pos_as_xyz
_cell_length_a                        9.0686
_cell_length_b                        7.6798
_cell_length_c                       10.1727
_cell_angle_alpha                   89.2266
_cell_angle_beta                   105.9447
_cell_angle_gamma                   89.0171

loop_
_atom_site_label
_atom_site_type_symbol
_atom_site_fract_x
_atom_site_fract_y
_atom_site_fract_z
_atom_site_charge
  Ge     Ge        0.313819999999964    0.296860000000038    0.309830000000034  0.0000
  Ge     Ge        0.099904150400452    0.989413939790934    0.189218848650856  0.0000
  Ge     Ge        0.900055530828316    0.949000252930586    0.873047293410930  0.0000
  Si     Si        0.667798378739426    0.250099473553944    0.709849189596031  0.0000
  Si     Si        0.691820340717224    0.648321545936499    0.721969303955603  0.0000
  Si     Si        0.339751089849500    0.700145649636892    0.324717051767096  0.0000
  Si     Si        0.316580420615524    0.280883358103780    0.623943546714617  0.0000
  Si     Si        0.673574652607459    0.262962384759497    0.402600420758481  0.0000
  Si     Si        0.694194122062395    0.659426936328816    0.416530431546454  0.0000
  Si     Si        0.339020132609910    0.683088001877056    0.631979140917398  0.0000
  Si     Si        0.899637502289363    0.963293954445224    0.402385400023763  0.0000
  Si     Si        0.125385565985366    0.978932556079097    0.691365891407326  0.0000
  O3     O3        0.292564433877051    0.233782027565139    0.467733364527157  0.0000
  O2     O2        0.676479215645929    0.210280164826024    0.557294433348050  0.0000
  O2     O2        0.714065961802660    0.700835930893048    0.574854676574419  0.0000
  O2     O2        0.322242497654702    0.739939501974167    0.475921678027723  0.0000
  O3     O3        0.270272462655388    0.514057546855748    0.278761485846561  0.0000
  O2     O2        0.727248236479610    0.443558926081001    0.751933884727607  0.0000
  O3     O3        0.501908231922641    0.253575343320274    0.308456719623156  0.0000
  O2     O2        0.491015970207657    0.237965253881452    0.711021147176955  0.0000
  O2     O2        0.516070036862740    0.692794345597495    0.720087470475764  0.0000
  O2     O2        0.519418966515570    0.696390099043039    0.330562859918285  0.0000
  O1     O1        0.184266648676239    0.187083647331017    0.188312729100916  0.0000
  O3     O3        0.769384515137150    0.116524910424389    0.817006005439590  0.0000
  O3     O3        0.810576587066870    0.752631982735991    0.834861790089952  0.0000
  O3     O3        0.253639584549797    0.842464433189082    0.216443111933770  0.0000
  O2     O2        0.278740668591070    0.486373003576539    0.637379416221639  0.0000
  O2     O2        0.737627343000050    0.458406992064875    0.397325988921970  0.0000
  O2     O2        0.206182309217695    0.163510993810013    0.686608225569549  0.0000
  O2     O2        0.784987252112886    0.130159595728524    0.352698945413628  0.0000
  O2     O2        0.804637756513277    0.785807397447614    0.362233012955006  0.0000
  O2     O2        0.240552154658261    0.815482908165106    0.695729650645897  0.0000
  O2     O2        0.972216932606137    0.966848821948504    0.566221250005901  0.0000
  O3     O3        0.032719981008940    0.967813817063866    0.331653427359831  0.0000
  O3     O3        0.067965732168064    0.970122329567135    0.825990342962593  0.0000
  O1     O1        0.955623930913742    0.955076097609104    0.047815605336893  0.0000
