data_c00003.vasp
_audit_creation_method             Generated by GULP
_audit_author_name                 Salvador R. G. Balestra
_symmetry_space_group_name_H-M     'P 1             '
_symmetry_Int_Tables_number        1

loop_
_symmetry_equiv_pos_site_id
_symmetry_equiv_pos_as_xyz
_cell_length_a                        8.9851
_cell_length_b                        7.6424
_cell_length_c                       10.2800
_cell_angle_alpha                   89.4601
_cell_angle_beta                   107.3238
_cell_angle_gamma                   91.5211

loop_
_atom_site_label
_atom_site_type_symbol
_atom_site_fract_x
_atom_site_fract_y
_atom_site_fract_z
_atom_site_charge
  Ge     Ge        0.313819999999964    0.296860000000038    0.309830000000034  0.0000
  Ge     Ge        0.692445190427989    0.352934572575974    0.711381665626801  0.0000
  Ge     Ge        0.645480683851492    0.757147818735836    0.384610390901923  0.0000
  Si     Si        0.658208519665096    0.753280122496572    0.697572935405713  0.0000
  Si     Si        0.281906874751295    0.705415342108942    0.301718275178700  0.0000
  Si     Si        0.323587384639600    0.298088716349300    0.620886715752199  0.0000
  Si     Si        0.678491025820967    0.353099546308199    0.397098513484758  0.0000
  Si     Si        0.296698757021444    0.698853691023399    0.608683416068391  0.0000
  Si     Si        0.879583204760932    0.052587691445041    0.363148407688109  0.0000
  Si     Si        0.101882533986616    0.001397056296552    0.662512575372185  0.0000
  Si     Si        0.080865092971960    0.009028910848723    0.162692213583877  0.0000
  Si     Si        0.892128255888217    0.039161588970653    0.853974849108925  0.0000
  O3     O3        0.266251384599427    0.267417405372037    0.459343267474097  0.0000
  O3     O3        0.736790564842166    0.359234263567632    0.560358130139149  0.0000
  O3     O3        0.705695983283035    0.771042217324387    0.559766066409018  0.0000
  O2     O2        0.240653754107087    0.705186540707124    0.444847496453037  0.0000
  O3     O3        0.279722674066040    0.509303646962220    0.250848454410002  0.0000
  O3     O3        0.702395680979795    0.566498967365287    0.767784821703166  0.0000
  O3     O3        0.509847308567517    0.258069565400895    0.348607564046941  0.0000
  O3     O3        0.505904086363100    0.266852156565583    0.683872286191422  0.0000
  O2     O2        0.472245148345519    0.775647728218212    0.662405865339466  0.0000
  O3     O3        0.449230198436681    0.799042310184548    0.323825334671931  0.0000
  O3     O3        0.215492139411635    0.156200560730027    0.181829333038909  0.0000
  O3     O3        0.830826592984260    0.234213625721237    0.827346327938392  0.0000
  O2     O2        0.743154551015201    0.909592131861415    0.797257225713528  0.0000
  O2     O2        0.152687607883016    0.816963961321233    0.192971326275000  0.0000
  O2     O2        0.288658868165154    0.497643613230512    0.655552279207984  0.0000
  O3     O3        0.671353880894835    0.546588677525623    0.336544545833672  0.0000
  O2     O2        0.225506722103324    0.163169488501680    0.686549391519486  0.0000
  O2     O2        0.798721029526205    0.240136239863351    0.345762586437350  0.0000
  O3     O3        0.749553619669085    0.900110155392185    0.313918835682228  0.0000
  O2     O2        0.186332528004806    0.816330663887499    0.667603561867291  0.0000
  O2     O2        0.966955448711585    0.016738146059401    0.521271972913533  0.0000
  O2     O2        0.996086702060845    0.060334270475605    0.273620044605946  0.0000
  O2     O2        0.027303860420507    0.000819237455247    0.785749336224962  0.0000
  O2     O2        0.959850454236194    0.007733541379793    0.014248256838395  0.0000
