data_c00009.vasp
_audit_creation_method             Generated by GULP
_audit_author_name                 Salvador R. G. Balestra
_symmetry_space_group_name_H-M     'P 1             '
_symmetry_Int_Tables_number        1

loop_
_symmetry_equiv_pos_site_id
_symmetry_equiv_pos_as_xyz
_cell_length_a                        9.1880
_cell_length_b                        7.6387
_cell_length_c                       10.0389
_cell_angle_alpha                   85.7479
_cell_angle_beta                   110.4569
_cell_angle_gamma                   88.3511

loop_
_atom_site_label
_atom_site_type_symbol
_atom_site_fract_x
_atom_site_fract_y
_atom_site_fract_z
_atom_site_charge
  Ge     Ge        0.313819999999964    0.296860000000038    0.309830000000034  0.0000
  Ge     Ge        0.739244678193119    0.596091975072737    0.743534583400957  0.0000
  Ge     Ge        0.111642220262605    0.986402064415055    0.176722699675641  0.0000
  Si     Si        0.715417140568761    0.187630966268025    0.718980317551249  0.0000
  Si     Si        0.362249969183750    0.682187954977870    0.346526921637510  0.0000
  Si     Si        0.357095446679698    0.225625273859769    0.641394925772164  0.0000
  Si     Si        0.680820460978971    0.246578034540897    0.398169368337408  0.0000
  Si     Si        0.707643340787439    0.647151540856403    0.416583628633243  0.0000
  Si     Si        0.389885209581562    0.610588214654720    0.668534587992364  0.0000
  Si     Si        0.891689362034998    0.952662984400817    0.348473050807313  0.0000
  Si     Si        0.151950537964530    0.923725050989183    0.652433390021610  0.0000
  Si     Si        0.963625494981656    0.881889926523439    0.863599128962666  0.0000
  O3     O3        0.299129832372768    0.226590414120492    0.471863189091427  0.0000
  O2     O2        0.716984969675307    0.170352166377838    0.560887985016451  0.0000
  O3     O3        0.745923637392060    0.677473183233634    0.580734323500645  0.0000
  O2     O2        0.410107656852496    0.613197560692835    0.514237328124787  0.0000
  O3     O3        0.274459872169404    0.521638206737677    0.264914970805527  0.0000
  O3     O3        0.777214333614464    0.371653578935426    0.773009588777685  0.0000
  O3     O3        0.499524002673751    0.248797053349791    0.310251840264805  0.0000
  O2     O2        0.539533426288234    0.165419330776938    0.712894016833175  0.0000
  O3     O3        0.563976439279905    0.638302128912695    0.769668393498564  0.0000
  O2     O2        0.527218157331541    0.704501015101857    0.323980654076004  0.0000
  O1     O1        0.175501158745937    0.194060094484574    0.183663923912516  0.0000
  O2     O2        0.823948500420741    0.032461689935418    0.826580924121643  0.0000
  O3     O3        0.887188900009247    0.697018714261015    0.865062600492785  0.0000
  O3     O3        0.263963360921732    0.862543064217769    0.307294293002124  0.0000
  O2     O2        0.332325243550086    0.416203891865053    0.694375352671901  0.0000
  O2     O2        0.742445386707664    0.443398398045958    0.397678622060221  0.0000
  O2     O2        0.257804405022267    0.088846558499174    0.699178527122484  0.0000
  O2     O2        0.774903796867272    0.120459112368541    0.332018156028945  0.0000
  O2     O2        0.813295320225133    0.768209303083524    0.354548341886772  0.0000
  O2     O2        0.262993346209085    0.748621148244645    0.679517433842156  0.0000
  O2     O2        0.047994450592345    0.956840772098949    0.486352398121800  0.0000
  O3     O3        0.941765561084178    0.967554501626269    0.211708834439637  0.0000
  O2     O2        0.046150626965228    0.899541047212865    0.747036773150979  0.0000
  O3     O3        0.089230680788762    0.906073226865290    0.015832695614453  0.0000
