data_c00048.vasp
_audit_creation_method             Generated by GULP
_audit_author_name                 Salvador R. G. Balestra
_symmetry_space_group_name_H-M     'P 1             '
_symmetry_Int_Tables_number        1

loop_
_symmetry_equiv_pos_site_id
_symmetry_equiv_pos_as_xyz
_cell_length_a                        9.0999
_cell_length_b                        7.6766
_cell_length_c                       10.2512
_cell_angle_alpha                   91.0808
_cell_angle_beta                   107.5334
_cell_angle_gamma                   88.3608

loop_
_atom_site_label
_atom_site_type_symbol
_atom_site_fract_x
_atom_site_fract_y
_atom_site_fract_z
_atom_site_charge
  Ge     Ge        0.331050000000005    0.296920000000000    0.607380000000035  0.0000
  Ge     Ge        0.700230943383210    0.652459178199954    0.380368233099690  0.0000
  Ge     Ge        0.105352080651324    0.986167443905709    0.138962585008060  0.0000
  Si     Si        0.319677788750598    0.284095138688841    0.297118693528333  0.0000
  Si     Si        0.690717768323717    0.272193163858743    0.697604892002003  0.0000
  Si     Si        0.708373366748725    0.669058851275098    0.694872254245741  0.0000
  Si     Si        0.340390206676136    0.687102606360667    0.298055261544294  0.0000
  Si     Si        0.672861023224954    0.250393045769342    0.384236037586317  0.0000
  Si     Si        0.353485707407206    0.702563711934181    0.604757632246951  0.0000
  Si     Si        0.894716719392965    0.955921773276226    0.330357484206049  0.0000
  Si     Si        0.125657500367731    0.995652310507828    0.624666137350932  0.0000
  Si     Si        0.918506632002293    0.969841036796479    0.819979910759706  0.0000
  O3     O3        0.307167476739448    0.224732123029330    0.442267787721813  0.0000
  O2     O2        0.683598583726282    0.224253773924838    0.542283151293474  0.0000
  O3     O3        0.724111848859591    0.711306696142982    0.548064275682429  0.0000
  O2     O2        0.343625497984114    0.751643084641971    0.449882798237450  0.0000
  O2     O2        0.280912655080157    0.489607768372482    0.278073611952057  0.0000
  O2     O2        0.755008714008930    0.467604208072530    0.733775914608827  0.0000
  O2     O2        0.494547074108652    0.248338521535086    0.293631137196187  0.0000
  O3     O3        0.519482345222544    0.262989019883105    0.708032791410312  0.0000
  O2     O2        0.532274821258997    0.701588181428981    0.695244223732172  0.0000
  O3     O3        0.511362308498594    0.693965705494090    0.285437656708843  0.0000
  O3     O3        0.203211442793544    0.177929416310216    0.178375503774758  0.0000
  O2     O2        0.804890368230895    0.139514316227216    0.801332527570996  0.0000
  O2     O2        0.818600486141772    0.795685721830445    0.806785870955847  0.0000
  O3     O3        0.225585416037375    0.807087067285861    0.187664296723801  0.0000
  O3     O3        0.283523979543354    0.515610870879869    0.610979280011171  0.0000
  O3     O3        0.744678073124971    0.432881004494979    0.367855735635669  0.0000
  O3     O3        0.203714111817727    0.180858570500242    0.664778973951218  0.0000
  O2     O2        0.756842330445855    0.090508091131080    0.332431760949676  0.0000
  O3     O3        0.829698330319028    0.763350493559824    0.323518643670502  0.0000
  O2     O2        0.261810157465970    0.848330517409293    0.665368542037727  0.0000
  O2     O2        0.042206705215944    0.983728233981218    0.462208835722773  0.0000
  O3     O3        0.947635561063213    0.985310804708024    0.198149335241428  0.0000
  O2     O2        0.002178955375187    0.964464640413666    0.702655821669341  0.0000
  O3     O3        0.044529855880249    0.977009150525336    0.963606258210835  0.0000
