data_c00031.vasp
_audit_creation_method             Generated by GULP
_audit_author_name                 Salvador R. G. Balestra
_symmetry_space_group_name_H-M     'P 1             '
_symmetry_Int_Tables_number        1

loop_
_symmetry_equiv_pos_site_id
_symmetry_equiv_pos_as_xyz
_cell_length_a                        9.1634
_cell_length_b                        7.6737
_cell_length_c                       10.1823
_cell_angle_alpha                   86.2178
_cell_angle_beta                   110.0419
_cell_angle_gamma                   90.3074

loop_
_atom_site_label
_atom_site_type_symbol
_atom_site_fract_x
_atom_site_fract_y
_atom_site_fract_z
_atom_site_charge
  Ge     Ge        0.313819999999964    0.296860000000038    0.309830000000034  0.0000
  Ge     Ge        0.653016907799451    0.734591043952592    0.387462883019013  0.0000
  Ge     Ge        0.134232243717196    0.962163650708969    0.683482668417714  0.0000
  Si     Si        0.692238200472643    0.303336659501544    0.696953063771658  0.0000
  Si     Si        0.696282800500517    0.689247269087071    0.712267971069488  0.0000
  Si     Si        0.287475857998455    0.712922183795579    0.316572955501785  0.0000
  Si     Si        0.348892800597104    0.263225901860592    0.630695657415645  0.0000
  Si     Si        0.661468266544017    0.340145722764001    0.377271739191891  0.0000
  Si     Si        0.334736923113926    0.669697188144148    0.630784583437528  0.0000
  Si     Si        0.877921690315452    0.029897999980226    0.373728019636695  0.0000
  Si     Si        0.068580688166671    0.024236262161438    0.168692447137092  0.0000
  Si     Si        0.908920671660231    0.985222362970514    0.852346853906765  0.0000
  O3     O3        0.311009493476574    0.214147635583622    0.471270221813817  0.0000
  O2     O2        0.643979037234371    0.350669812513476    0.530811960046622  0.0000
  O3     O3        0.720387035579412    0.746241691030447    0.567191353760314  0.0000
  O2     O2        0.276173192348595    0.743722380654808    0.468676335199062  0.0000
  O3     O3        0.258563693929717    0.514205707414737    0.280811535568912  0.0000
  O2     O2        0.751002492547194    0.487126752381042    0.766137387070795  0.0000
  O3     O3        0.492692046010940    0.276015928728382    0.287354078987312  0.0000
  O2     O2        0.533717770614791    0.237374571269168    0.719311331332112  0.0000
  O2     O2        0.517191108999212    0.707721579533510    0.698298624037057  0.0000
  O3     O3        0.455715807172603    0.772266357416689    0.317972081557868  0.0000
  O3     O3        0.190342022428935    0.176904602841396    0.182620440139540  0.0000
  O2     O2        0.823924334529634    0.155023254369237    0.752954383361846  0.0000
  O2     O2        0.799099334564992    0.817064006822167    0.825679407765047  0.0000
  O2     O2        0.155705804599809    0.836042540440504    0.204895129594397  0.0000
  O2     O2        0.301326053137331    0.464118729454212    0.635376711110900  0.0000
  O3     O3        0.694491505667498    0.536246221617362    0.334801695835728  0.0000
  O3     O3        0.251210604357574    0.141582086328557    0.700124485660795  0.0000
  O2     O2        0.801867951858269    0.217134073618276    0.379963742785797  0.0000
  O3     O3        0.743545087293073    0.892124998018950    0.316686260743503  0.0000
  O3     O3        0.243507658787960    0.771365924960942    0.709272936098489  0.0000
  O3     O3        0.983322616710027    0.961744944716123    0.528155365833669  0.0000
  O2     O2        0.976088043234546    0.061247942312279    0.272433632256271  0.0000
  O3     O3        0.064189520722082    0.951793689733216    0.820585595382354  0.0000
  O2     O2        0.946146829582122    0.027858847219131    0.012311699574313  0.0000
