data_c00001.vasp
_audit_creation_method             Generated by GULP
_audit_author_name                 Salvador R. G. Balestra
_symmetry_space_group_name_H-M     'P 1             '
_symmetry_Int_Tables_number        1

loop_
_symmetry_equiv_pos_site_id
_symmetry_equiv_pos_as_xyz
_cell_length_a                        9.0013
_cell_length_b                        7.6165
_cell_length_c                       10.1912
_cell_angle_alpha                   89.2479
_cell_angle_beta                   107.5999
_cell_angle_gamma                   87.9823

loop_
_atom_site_label
_atom_site_type_symbol
_atom_site_fract_x
_atom_site_fract_y
_atom_site_fract_z
_atom_site_charge
  Ge     Ge        0.313819999999964    0.296860000000038    0.309830000000034  0.0000
  Ge     Ge        0.692892043289619    0.211324435216362    0.711713882099936  0.0000
  Ge     Ge        0.733229092153764    0.624736616623689    0.730321775177323  0.0000
  Si     Si        0.353026273036057    0.697615239800034    0.334757778007055  0.0000
  Si     Si        0.332383175789137    0.278702930970106    0.630430907544498  0.0000
  Si     Si        0.675086761969083    0.240421100311797    0.395296855783831  0.0000
  Si     Si        0.708379377720462    0.643987881591780    0.414768175314308  0.0000
  Si     Si        0.368315578036259    0.675251883479366    0.648187768024105  0.0000
  Si     Si        0.899509477082356    0.943344742949560    0.354625117876985  0.0000
  Si     Si        0.132594984563158    0.973706035504164    0.654632116609175  0.0000
  Si     Si        0.115067278013073    0.989277918772330    0.171129889189968  0.0000
  Si     Si        0.938419994752683    0.922301145780862    0.863141403799816  0.0000
  O3     O3        0.318051803113956    0.237252625602293    0.473704852976110  0.0000
  O3     O3        0.682179687685203    0.163441728295027    0.544156189351011  0.0000
  O3     O3        0.737427206200504    0.700024691667710    0.570410541729008  0.0000
  O2     O2        0.363990284455191    0.726280193505189    0.493322407599085  0.0000
  O3     O3        0.268662624481220    0.519925971181559    0.280846632950729  0.0000
  O1     O1        0.779506286371701    0.406899390302374    0.755015561067704  0.0000
  O3     O3        0.499094150860690    0.253721662899675    0.296773923751421  0.0000
  O3     O3        0.505921373478025    0.231366205885704    0.724033211078731  0.0000
  O3     O3        0.546398337475319    0.669349108971720    0.741493085373418  0.0000
  O2     O2        0.528647828967211    0.683279839530649    0.325355662512264  0.0000
  O3     O3        0.169205146128883    0.186970864550433    0.193973644228041  0.0000
  O3     O3        0.784911685996988    0.049300807124728    0.828722193107207  0.0000
  O3     O3        0.878155748701632    0.727455686036740    0.852370955888785  0.0000
  O2     O2        0.267404950648753    0.866454183148200    0.245524042009603  0.0000
  O2     O2        0.293759388458530    0.484868314439707    0.648269493041448  0.0000
  O2     O2        0.747336154746563    0.435072120205986    0.411591071463885  0.0000
  O2     O2        0.209670895878451    0.162885784429615    0.676735064904676  0.0000
  O2     O2        0.779085152413890    0.109992611531441    0.332508368099243  0.0000
  O2     O2        0.816017871649834    0.758170163445499    0.348072930190156  0.0000
  O2     O2        0.265280004950822    0.817494955404691    0.701848373745279  0.0000
  O2     O2        0.038063255154247    0.952998279235721    0.495702127905120  0.0000
  O2     O2        0.972336189926441    0.948360463024971    0.229278774981129  0.0000
  O2     O2        0.017845208829026    0.969619879473896    0.745979381159212  0.0000
  O2     O2        0.061390048743283    0.952648313060422    0.009940158532801  0.0000
