data_c00015.vasp
_audit_creation_method             Generated by GULP
_audit_author_name                 Salvador R. G. Balestra
_symmetry_space_group_name_H-M     'P 1             '
_symmetry_Int_Tables_number        1

loop_
_symmetry_equiv_pos_site_id
_symmetry_equiv_pos_as_xyz
_cell_length_a                        9.0023
_cell_length_b                        7.6615
_cell_length_c                       10.2083
_cell_angle_alpha                   90.7322
_cell_angle_beta                   106.5890
_cell_angle_gamma                   88.3632

loop_
_atom_site_label
_atom_site_type_symbol
_atom_site_fract_x
_atom_site_fract_y
_atom_site_fract_z
_atom_site_charge
  Ge     Ge        0.313819999999964    0.296860000000038    0.309830000000034  0.0000
  Ge     Ge        0.347749307475151    0.710972248944278    0.321672377295214  0.0000
  Ge     Ge        0.916272244531681    0.962173803620027    0.871365269042813  0.0000
  Si     Si        0.681476457460923    0.257610386884330    0.707750662573998  0.0000
  Si     Si        0.712861853347894    0.653491822690489    0.718142810124327  0.0000
  Si     Si        0.326608401999538    0.301597820370588    0.623921592659205  0.0000
  Si     Si        0.679191093209448    0.253716468262975    0.400089316264018  0.0000
  Si     Si        0.707838801244388    0.653350481204906    0.409379003040913  0.0000
  Si     Si        0.359492953627803    0.703530090668795    0.636550192574585  0.0000
  Si     Si        0.914158518116159    0.956738140310984    0.396590573460648  0.0000
  Si     Si        0.142418092839339    0.000213148042254    0.690677859169952  0.0000
  Si     Si        0.104039594605942    0.994875956337910    0.183649819068130  0.0000
  O3     O3        0.299303051531082    0.242202952777119    0.469241089728902  0.0000
  O2     O2        0.687740665031111    0.206165798559352    0.555780543780972  0.0000
  O2     O2        0.715056392046150    0.699492632103243    0.565405668180824  0.0000
  O3     O3        0.343342166150981    0.766721898504549    0.484906955117028  0.0000
  O1     O1        0.270818420018172    0.510959167052210    0.276184720854168  0.0000
  O2     O2        0.752184238811810    0.448669215906623    0.747405380579442  0.0000
  O3     O3        0.503253344511024    0.246724119846598    0.308505284048006  0.0000
  O2     O2        0.503706633024545    0.262067281854973    0.710244264731470  0.0000
  O2     O2        0.539138364887091    0.699884130495068    0.726881536767127  0.0000
  O3     O3        0.537972476634637    0.700998264406102    0.315774133681495  0.0000
  O3     O3        0.175514189190450    0.184610628024477    0.189861055092708  0.0000
  O3     O3        0.773863162222522    0.119657999065150    0.815723255486017  0.0000
  O3     O3        0.840571617730332    0.759082376509457    0.825823457967551  0.0000
  O3     O3        0.249447396415379    0.860742366845804    0.203762240381815  0.0000
  O2     O2        0.289208054778468    0.509459535054850    0.631079536689996  0.0000
  O2     O2        0.744508878728303    0.447460649531420    0.392716710685598  0.0000
  O2     O2        0.216859666258601    0.188996912101916    0.688398474767387  0.0000
  O2     O2        0.786583180486605    0.113494229029951    0.348152355276741  0.0000
  O2     O2        0.833657867463153    0.768683442704982    0.367421067807320  0.0000
  O2     O2        0.266554389639118    0.840486743144857    0.706032020040429  0.0000
  O2     O2        0.997156278228242    0.975426604454345    0.557460425624275  0.0000
  O2     O2        0.038132647824667    0.961826078633404    0.312819517844217  0.0000
  O3     O3        0.079046892885763    0.998343041623295    0.820883460251478  0.0000
  O3     O3        0.969944276355599    0.966108263847819    0.046965746101858  0.0000
