data_c00052.vasp
_audit_creation_method             Generated by GULP
_audit_author_name                 Salvador R. G. Balestra
_symmetry_space_group_name_H-M     'P 1             '
_symmetry_Int_Tables_number        1

loop_
_symmetry_equiv_pos_site_id
_symmetry_equiv_pos_as_xyz
_cell_length_a                        8.9863
_cell_length_b                        7.6309
_cell_length_c                       10.2979
_cell_angle_alpha                   91.7280
_cell_angle_beta                   108.0453
_cell_angle_gamma                   87.7251

loop_
_atom_site_label
_atom_site_type_symbol
_atom_site_fract_x
_atom_site_fract_y
_atom_site_fract_z
_atom_site_charge
  Ge     Ge        0.331050000000005    0.296920000000000    0.607380000000035  0.0000
  Ge     Ge        0.386822336441195    0.706049079216569    0.613353104675334  0.0000
  Ge     Ge        0.942743931781369    0.936278531855925    0.853542972801398  0.0000
  Si     Si        0.331234633596914    0.260176349215791    0.298887569600486  0.0000
  Si     Si        0.696959071797562    0.229746300755308    0.693450665407635  0.0000
  Si     Si        0.745223579354770    0.624308858581904    0.699111751748339  0.0000
  Si     Si        0.362314016277837    0.662827761277540    0.296987821585684  0.0000
  Si     Si        0.688911461688257    0.215563406762503    0.386417259496505  0.0000
  Si     Si        0.717080678425406    0.612958749153898    0.386297329293823  0.0000
  Si     Si        0.921925343601454    0.914970714859500    0.373245804099402  0.0000
  Si     Si        0.152241625258638    0.994130406966609    0.666437803474466  0.0000
  Si     Si        0.124036980115781    0.952520606537348    0.172145159349735  0.0000
  O3     O3        0.315255042048886    0.221478139551123    0.444256745147311  0.0000
  O2     O2        0.700366770573404    0.173241301748172    0.541431841549726  0.0000
  O2     O2        0.728198061616307    0.662707537764097    0.541357346487852  0.0000
  O3     O3        0.364885818798526    0.738544356167942    0.443590740461177  0.0000
  O2     O2        0.294103465430062    0.467142584447098    0.268681245258882  0.0000
  O2     O2        0.777357692971364    0.418146296821008    0.730044970900543  0.0000
  O2     O2        0.507368773648306    0.211322721282917    0.295337234369212  0.0000
  O3     O3        0.522910699493949    0.247578432977688    0.701697291959294  0.0000
  O3     O3        0.579211619512869    0.686839152457537    0.714505196078890  0.0000
  O2     O2        0.540308474538530    0.656285605586953    0.290004030668628  0.0000
  O2     O2        0.208971153743545    0.139099873455601    0.188342032427165  0.0000
  O3     O3        0.789603609303732    0.084823513200843    0.796756594715310  0.0000
  O3     O3        0.885152451992402    0.726301477591710    0.800639834312411  0.0000
  O2     O2        0.253125356933994    0.793752160046068    0.183937900579386  0.0000
  O1     O1        0.294741166965689    0.515845690560656    0.620442388410287  0.0000
  O2     O2        0.757423046101024    0.405780751675815    0.374433929644834  0.0000
  O3     O3        0.189684925505046    0.195221976234814    0.655372788130832  0.0000
  O2     O2        0.789867323388902    0.070427656346597    0.331741407928425  0.0000
  O2     O2        0.838751509326447    0.727033275485201    0.340473281185649  0.0000
  O3     O3        0.311432497797689    0.883617378366492    0.680026951895176  0.0000
  O2     O2        0.015714067844991    0.924454119244706    0.533890831375099  0.0000
  O2     O2        0.040895106779569    0.929106354178490    0.287998646636096  0.0000
  O3     O3        0.099789071396124    0.978242744684045    0.799424914115593  0.0000
  O3     O3        0.994633516093617    0.944900097945336    0.028184197992313  0.0000
