data_c00021.vasp
_audit_creation_method             Generated by GULP
_audit_author_name                 Salvador R. G. Balestra
_symmetry_space_group_name_H-M     'P 1             '
_symmetry_Int_Tables_number        1

loop_
_symmetry_equiv_pos_site_id
_symmetry_equiv_pos_as_xyz
_cell_length_a                        9.0897
_cell_length_b                        7.7072
_cell_length_c                       10.0686
_cell_angle_alpha                   88.4598
_cell_angle_beta                   106.7574
_cell_angle_gamma                   89.4652

loop_
_atom_site_label
_atom_site_type_symbol
_atom_site_fract_x
_atom_site_fract_y
_atom_site_fract_z
_atom_site_charge
  Ge     Ge        0.313819999999964    0.296860000000038    0.309830000000034  0.0000
  Ge     Ge        0.324186410356101    0.278090614406735    0.633339844792195  0.0000
  Ge     Ge        0.088437824614654    0.001840179111211    0.178749312650459  0.0000
  Si     Si        0.676406433181682    0.280794238507309    0.714506769969988  0.0000
  Si     Si        0.685932898509173    0.673132619148686    0.719504219693117  0.0000
  Si     Si        0.320627855476691    0.705914004584918    0.321798217079710  0.0000
  Si     Si        0.666545503989603    0.299475779798824    0.395801988747600  0.0000
  Si     Si        0.677439221825265    0.690289517120617    0.406650611460576  0.0000
  Si     Si        0.329332563481437    0.689918310154555    0.630842866226186  0.0000
  Si     Si        0.889893166528975    0.991336454277142    0.397485899546428  0.0000
  Si     Si        0.119937819466050    0.978439075512415    0.696087677188842  0.0000
  Si     Si        0.894268244150552    0.969097343674630    0.868327744838963  0.0000
  O1     O1        0.300036904524182    0.216733076484413    0.467031350349563  0.0000
  O2     O2        0.644512429562460    0.272214994470640    0.548606707045835  0.0000
  O2     O2        0.705072678381606    0.720656320021421    0.569287821831719  0.0000
  O2     O2        0.305774799922445    0.758096034559215    0.472621955455064  0.0000
  O3     O3        0.262418020936968    0.513060633238668    0.292509225637827  0.0000
  O2     O2        0.736921466808805    0.473109194557535    0.763629757029450  0.0000
  O3     O3        0.498684124299742    0.273941726547155    0.294126511210593  0.0000
  O3     O3        0.512400506525904    0.248161737988031    0.737274004781019  0.0000
  O2     O2        0.509176546395467    0.698797960358847    0.716422579021728  0.0000
  O2     O2        0.498965339972255    0.719808032948960    0.324441554245952  0.0000
  O1     O1        0.188409394469100    0.188289872120280    0.180945664382949  0.0000
  O2     O2        0.802858796390691    0.141774868754979    0.795537723836166  0.0000
  O2     O2        0.791777525790594    0.798711572637634    0.829590472605977  0.0000
  O3     O3        0.221003301394210    0.833030647616834    0.203437620894559  0.0000
  O3     O3        0.272756321121037    0.495543650949104    0.633676482148109  0.0000
  O2     O2        0.727261636137093    0.494782876634646    0.381264135433871  0.0000
  O3     O3        0.207002638100940    0.158153553102246    0.706489149134231  0.0000
  O2     O2        0.788670261288272    0.168677444697012    0.364878978845611  0.0000
  O2     O2        0.779311175944954    0.826795220694160    0.350465749403600  0.0000
  O2     O2        0.237557183218007    0.819146480851375    0.701527945113787  0.0000
  O2     O2        0.973840384545317    0.975166944293685    0.561020051347829  0.0000
  O3     O3        0.014154426489156    0.998930912120830    0.317674255570472  0.0000
  O2     O2        0.053685098772142    0.953371620894195    0.827975067604983  0.0000
  O3     O3        0.937339702878588    0.984486598132354    0.031792321804921  0.0000
