data_c00013.vasp
_audit_creation_method             Generated by GULP
_audit_author_name                 Salvador R. G. Balestra
_symmetry_space_group_name_H-M     'P 1             '
_symmetry_Int_Tables_number        1

loop_
_symmetry_equiv_pos_site_id
_symmetry_equiv_pos_as_xyz
_cell_length_a                        9.0840
_cell_length_b                        7.6663
_cell_length_c                       10.2361
_cell_angle_alpha                   89.2412
_cell_angle_beta                   108.2209
_cell_angle_gamma                   91.2729

loop_
_atom_site_label
_atom_site_type_symbol
_atom_site_fract_x
_atom_site_fract_y
_atom_site_fract_z
_atom_site_charge
  Ge     Ge        0.313819999999964    0.296860000000038    0.309830000000034  0.0000
  Ge     Ge        0.285634848277682    0.714765051628112    0.300888933115006  0.0000
  Ge     Ge        0.123688710431873    0.010895385220833    0.676711213768874  0.0000
  Si     Si        0.696983850978438    0.346930361539957    0.699641327702451  0.0000
  Si     Si        0.672897680936246    0.741795617365306    0.692566596494343  0.0000
  Si     Si        0.344689018495264    0.304500684920120    0.623542357456560  0.0000
  Si     Si        0.673750589023324    0.350556126293150    0.384868103262773  0.0000
  Si     Si        0.649856180047115    0.746873636998884    0.377941343813653  0.0000
  Si     Si        0.318765217661340    0.712128495864676    0.614487011441544  0.0000
  Si     Si        0.878605716376900    0.045844889142544    0.371335155863136  0.0000
  Si     Si        0.071076347013624    0.013049476157298    0.163552376572917  0.0000
  Si     Si        0.899185033821347    0.039497944394568    0.853274020893336  0.0000
  O3     O3        0.316073725717988    0.228007836760966    0.472274967984809  0.0000
  O2     O2        0.691081731026333    0.313215013607046    0.544137049560543  0.0000
  O2     O2        0.669599084985188    0.782967832256341    0.537552620194317  0.0000
  O3     O3        0.281877877949590    0.784238101282257    0.460161888123821  0.0000
  O1     O1        0.238890666114856    0.500089745462922    0.275357036012851  0.0000
  O2     O2        0.741600259083554    0.549356117684910    0.738558579569868  0.0000
  O3     O3        0.499691836787215    0.304580965791799    0.297674041272979  0.0000
  O2     O2        0.527059157611637    0.302009507181371    0.710900235284720  0.0000
  O2     O2        0.499039657861523    0.749958134986927    0.699855945510583  0.0000
  O3     O3        0.470882759580926    0.758353426582481    0.291616873861852  0.0000
  O3     O3        0.210537509190131    0.152879186206115    0.187561265733861  0.0000
  O2     O2        0.824993167670999    0.226669011092225    0.800960138501059  0.0000
  O2     O2        0.776840476548454    0.883591271514342    0.793808504726641  0.0000
  O3     O3        0.145839702240502    0.824813069292335    0.176574912619636  0.0000
  O2     O2        0.285716489859744    0.503887154378453    0.606839503177611  0.0000
  O2     O2        0.711792277078651    0.553878215429039    0.362538503409304  0.0000
  O3     O3        0.251425235579585    0.186120252623615    0.699782921476285  0.0000
  O2     O2        0.793867446135875    0.232057893242576    0.341268331340114  0.0000
  O2     O2        0.752478269023396    0.887638310227302    0.325369413749917  0.0000
  O3     O3        0.213843346357036    0.812704835504161    0.685986501437103  0.0000
  O3     O3        0.967953714194012    0.027635074752018    0.531252879983598  0.0000
  O2     O2        0.996048828743648    0.043353713545558    0.284467663261596  0.0000
  O3     O3        0.053677033873334    0.013837031582809    0.814743172067154  0.0000
  O2     O2        0.940780623509831    0.036952910304648    0.017715769780243  0.0000
