data_c00011.vasp
_audit_creation_method             Generated by GULP
_audit_author_name                 Salvador R. G. Balestra
_symmetry_space_group_name_H-M     'P 1             '
_symmetry_Int_Tables_number        1

loop_
_symmetry_equiv_pos_site_id
_symmetry_equiv_pos_as_xyz
_cell_length_a                        9.0173
_cell_length_b                        7.6628
_cell_length_c                       10.1297
_cell_angle_alpha                   92.3632
_cell_angle_beta                   108.0480
_cell_angle_gamma                   88.4674

loop_
_atom_site_label
_atom_site_type_symbol
_atom_site_fract_x
_atom_site_fract_y
_atom_site_fract_z
_atom_site_charge
  Ge     Ge        0.313819999999964    0.296860000000038    0.309830000000034  0.0000
  Ge     Ge        0.363700716504099    0.715440184928182    0.320082333756238  0.0000
  Ge     Ge        0.691996838289210    0.246293382424429    0.393125064817739  0.0000
  Si     Si        0.714027597189949    0.272382583322794    0.715348391315263  0.0000
  Si     Si        0.724615982695247    0.660327402076235    0.712666810378301  0.0000
  Si     Si        0.349889959095842    0.313703884401502    0.630473809019153  0.0000
  Si     Si        0.715818496792645    0.643322433612869    0.396487380851927  0.0000
  Si     Si        0.377882211739069    0.718446025622099    0.639753094478526  0.0000
  Si     Si        0.928833129110758    0.949604678580988    0.386187810177606  0.0000
  Si     Si        0.161790278515875    0.019549040174666    0.687281170862030  0.0000
  Si     Si        0.112370957571948    0.984291828227037    0.172448780559844  0.0000
  Si     Si        0.934316292931592    0.975979676130168    0.857492438885479  0.0000
  O3     O3        0.298009067635357    0.253606418964655    0.471202741900040  0.0000
  O3     O3        0.738484374008603    0.217416430267054    0.569795622093328  0.0000
  O2     O2        0.689318629054624    0.634117019120860    0.547729484459560  0.0000
  O3     O3        0.356539162489611    0.774972644854995    0.484793533745071  0.0000
  O1     O1        0.288040064091640    0.512009337873852    0.274367412552679  0.0000
  O2     O2        0.775502365375987    0.467469967279260    0.772696891478656  0.0000
  O1     O1        0.496935741482620    0.227032898374884    0.311914262513996  0.0000
  O2     O2        0.531728640565281    0.268847874217553    0.700666966575686  0.0000
  O2     O2        0.560549576162792    0.726246813942580    0.733092344158233  0.0000
  O3     O3        0.550467061072608    0.716467381196691    0.304527038240113  0.0000
  O3     O3        0.163386674747085    0.183907157572883    0.192362372992009  0.0000
  O2     O2        0.808140249153158    0.133322702706600    0.826484683955658  0.0000
  O2     O2        0.859585265093609    0.795711909677077    0.782430972098501  0.0000
  O3     O3        0.267866528036788    0.867068316488354    0.202171517821478  0.0000
  O2     O2        0.316737871409736    0.521754629165824    0.641869516960276  0.0000
  O3     O3        0.749697125562573    0.447193343581219    0.354820290640656  0.0000
  O2     O2        0.252504827708505    0.202826745709987    0.706915751112275  0.0000
  O3     O3        0.792108658577334    0.088546920914230    0.327635809969009  0.0000
  O2     O2        0.859117821175592    0.761450383832758    0.397595857854920  0.0000
  O2     O2        0.279788969753210    0.853946281621837    0.706497241802823  0.0000
  O2     O2        0.030520546018437    0.014552481476313    0.538910476844428  0.0000
  O2     O2        0.032631495819359    0.922243744896554    0.284831083910110  0.0000
  O2     O2        0.082173038170663    0.019005306631270    0.808472819397256  0.0000
  O2     O2        0.991328032449404    0.948480548166300    0.021023691755698  0.0000
