data_c00033.vasp
_audit_creation_method             Generated by GULP
_audit_author_name                 Salvador R. G. Balestra
_symmetry_space_group_name_H-M     'P 1             '
_symmetry_Int_Tables_number        1

loop_
_symmetry_equiv_pos_site_id
_symmetry_equiv_pos_as_xyz
_cell_length_a                        9.1021
_cell_length_b                        7.6693
_cell_length_c                       10.0235
_cell_angle_alpha                   84.7764
_cell_angle_beta                   108.9114
_cell_angle_gamma                   90.5390

loop_
_atom_site_label
_atom_site_type_symbol
_atom_site_fract_x
_atom_site_fract_y
_atom_site_fract_z
_atom_site_charge
  Ge     Ge        0.313819999999964    0.296860000000038    0.309830000000034  0.0000
  Ge     Ge        0.652806613352273    0.734853078046655    0.404126453977631  0.0000
  Ge     Ge        0.898828069861834    0.969628625594183    0.863131267375692  0.0000
  Si     Si        0.679117584867125    0.292908055972668    0.701398974148732  0.0000
  Si     Si        0.680173630198933    0.674955796829789    0.728874671668508  0.0000
  Si     Si        0.286361433588148    0.707661679033930    0.317757925397927  0.0000
  Si     Si        0.337048785147108    0.246979470372771    0.637633336639603  0.0000
  Si     Si        0.659933629390309    0.344255573542828    0.382975676358887  0.0000
  Si     Si        0.317046277811134    0.648684683431518    0.636302333036587  0.0000
  Si     Si        0.882378628857446    0.032573845966424    0.396380699635954  0.0000
  Si     Si        0.129203803532366    0.943436968957097    0.697764538898116  0.0000
  Si     Si        0.067901014504958    0.025765175843503    0.180987211238759  0.0000
  O3     O3        0.301046453699852    0.221319231799881    0.473515636869238  0.0000
  O2     O2        0.630109205333736    0.361038902060419    0.534403321796001  0.0000
  O3     O3        0.715542459695286    0.741997747257004    0.585740163167788  0.0000
  O2     O2        0.260051551921168    0.705212704135701    0.469594141804186  0.0000
  O3     O3        0.265889232708992    0.516349228655826    0.266364910674507  0.0000
  O2     O2        0.730504403710053    0.470224407092853    0.779899248303560  0.0000
  O3     O3        0.496559881399034    0.271771711733029    0.291898317451125  0.0000
  O2     O2        0.521020027404610    0.215607166539632    0.723890799996278  0.0000
  O2     O2        0.496898874873236    0.693935276745510    0.703915906618807  0.0000
  O3     O3        0.456238752153246    0.780177055049625    0.334030381901780  0.0000
  O3     O3        0.190105249750106    0.177731429680579    0.185080445742062  0.0000
  O3     O3        0.810580978229651    0.147676410584813    0.746209190621826  0.0000
  O3     O3        0.779138583532137    0.792091572821588    0.848222073937595  0.0000
  O2     O2        0.156087976776103    0.837187617910888    0.208376063074015  0.0000
  O2     O2        0.287394152562394    0.442010017923687    0.660016301220417  0.0000
  O3     O3        0.692034282291163    0.543162595103999    0.340549955772992  0.0000
  O2     O2        0.243609452036932    0.106039686009127    0.704575086027213  0.0000
  O2     O2        0.804717880622151    0.222216624565555    0.393123602823696  0.0000
  O3     O3        0.749864457916609    0.895960036192211    0.337387381445918  0.0000
  O2     O2        0.217523185272626    0.759260646789778    0.706088943838766  0.0000
  O2     O2        0.979180547393755    0.966926071017537    0.557529214546384  0.0000
  O2     O2        0.992731865215237    0.057769579950537    0.301523225289893  0.0000
  O3     O3        0.070013590780114    0.929778157271760    0.831263254118245  0.0000
  O3     O3        0.935998191598714    0.032102163747775    0.030988245460387  0.0000
