data_c00059.vasp
_audit_creation_method             Generated by GULP
_audit_author_name                 Salvador R. G. Balestra
_symmetry_space_group_name_H-M     'P 1             '
_symmetry_Int_Tables_number        1

loop_
_symmetry_equiv_pos_site_id
_symmetry_equiv_pos_as_xyz
_cell_length_a                        9.2306
_cell_length_b                        7.6934
_cell_length_c                       10.2588
_cell_angle_alpha                   89.4212
_cell_angle_beta                   109.0681
_cell_angle_gamma                   90.5842

loop_
_atom_site_label
_atom_site_type_symbol
_atom_site_fract_x
_atom_site_fract_y
_atom_site_fract_z
_atom_site_charge
  Ge     Ge        0.879680000000008    0.000000000000000    0.350159999999960  0.0000
  Ge     Ge        0.138466714545469    0.977807804928137    0.654343288747002  0.0000
  Ge     Ge        0.097575592415573    0.984504817156860    0.167713820455002  0.0000
  Si     Si        0.329515789080596    0.277979093574522    0.339366726039391  0.0000
  Si     Si        0.715235225101232    0.295616509408995    0.725351620551286  0.0000
  Si     Si        0.702852497799199    0.694198174283308    0.723958258756926  0.0000
  Si     Si        0.313949997494565    0.683526306909551    0.337995698934922  0.0000
  Si     Si        0.361715529235561    0.275612640855411    0.649734013078567  0.0000
  Si     Si        0.680731499786384    0.300877859256653    0.412703547651544  0.0000
  Si     Si        0.664599576899857    0.702789251962713    0.410017681123483  0.0000
  Si     Si        0.349727854610237    0.676073391361295    0.649292994454526  0.0000
  Si     Si        0.926502098303216    0.991092053888487    0.847623577926110  0.0000
  O2     O2        0.318781783381017    0.223357546139161    0.488637722062887  0.0000
  O2     O2        0.727978204825562    0.256762599735275    0.575525063073839  0.0000
  O2     O2        0.710773339350394    0.742521717775463    0.573002510244797  0.0000
  O2     O2        0.304432068013191    0.730763518053951    0.488055453819392  0.0000
  O2     O2        0.283007363719780    0.479076587624225    0.309663463196549  0.0000
  O2     O2        0.759026665749936    0.496559020822541    0.765119004409961  0.0000
  O2     O2        0.502821740361337    0.250514335052434    0.339742799892757  0.0000
  O2     O2        0.543521222344817    0.255819406280208    0.724938872358190  0.0000
  O2     O2        0.529871094518930    0.713806777292129    0.725036269652121  0.0000
  O2     O2        0.483766606460697    0.733400428690872    0.336166524144587  0.0000
  O3     O3        0.217180340802500    0.161140285830730    0.224599412969119  0.0000
  O2     O2        0.830880452159333    0.170270455284547    0.836113143460213  0.0000
  O2     O2        0.811699243945686    0.825330047129751    0.834025694035277  0.0000
  O3     O3        0.188795706362276    0.789729787727125    0.224466100614463  0.0000
  O2     O2        0.313663798075587    0.473414831842965    0.663655122463234  0.0000
  O2     O2        0.707008881367081    0.504457228904349    0.390483512626139  0.0000
  O3     O3        0.265547820790330    0.150181283165017    0.713389849930526  0.0000
  O3     O3        0.787124144981153    0.193770778719268    0.350460521529679  0.0000
  O3     O3        0.757571239590514    0.826909881854773    0.342688882514792  0.0000
  O3     O3        0.246297701630051    0.790981138430086    0.710177299485736  0.0000
  O1     O1        0.050330442637740    0.983948838506700    0.480106860029408  0.0000
  O1     O1        0.931494958226586    0.999307350161487    0.203982824039340  0.0000
  O3     O3        0.994091738122406    0.984491300782958    0.723347383476755  0.0000
  O3     O3        0.058861511054697    0.984422247725358    0.990993472346579  0.0000
