data_c00039.vasp
_audit_creation_method             Generated by GULP
_audit_author_name                 Salvador R. G. Balestra
_symmetry_space_group_name_H-M     'P 1             '
_symmetry_Int_Tables_number        1

loop_
_symmetry_equiv_pos_site_id
_symmetry_equiv_pos_as_xyz
_cell_length_a                        9.0710
_cell_length_b                        7.6679
_cell_length_c                       10.3281
_cell_angle_alpha                   87.7605
_cell_angle_beta                   107.9626
_cell_angle_gamma                   91.5658

loop_
_atom_site_label
_atom_site_type_symbol
_atom_site_fract_x
_atom_site_fract_y
_atom_site_fract_z
_atom_site_charge
  Ge     Ge        0.313819999999964    0.296860000000038    0.309830000000034  0.0000
  Ge     Ge        0.857150274849377    0.048536717461911    0.342357919081651  0.0000
  Ge     Ge        0.063532646638671    0.009089012607615    0.142970160107467  0.0000
  Si     Si        0.674675619226679    0.327268396678517    0.702406075409353  0.0000
  Si     Si        0.650529386141780    0.724100134399771    0.700744149876217  0.0000
  Si     Si        0.268978078101666    0.700853418315369    0.310732166621649  0.0000
  Si     Si        0.320848944650184    0.283276203317375    0.621824957067693  0.0000
  Si     Si        0.670516336724432    0.357133207263376    0.395548725988714  0.0000
  Si     Si        0.624469818870215    0.753663357120322    0.390923806677187  0.0000
  Si     Si        0.295733288027042    0.682533699743435    0.620217892990848  0.0000
  Si     Si        0.097599466455375    0.984647333901310    0.636319412383668  0.0000
  Si     Si        0.883322614952576    0.014652266572402    0.823824938929059  0.0000
  O3     O3        0.298528489164620    0.234137516917638    0.467979892600981  0.0000
  O2     O2        0.677742987938601    0.303073067705532    0.550074638635493  0.0000
  O2     O2        0.655220269827695    0.784529472027968    0.550858962400512  0.0000
  O2     O2        0.264511925636873    0.734770743703748    0.462550527166140  0.0000
  O3     O3        0.236954005930625    0.501862670476050    0.273695780196751  0.0000
  O2     O2        0.715858129071353    0.528592277206112    0.742624242366032  0.0000
  O3     O3        0.501397497911118    0.297770279270586    0.303765110219095  0.0000
  O2     O2        0.502725317400287    0.276277068307711    0.708232690787233  0.0000
  O2     O2        0.474153416345449    0.725971033959115    0.704173223466247  0.0000
  O2     O2        0.441987351020700    0.757733441695647    0.309031572522058  0.0000
  O1     O1        0.209017562418683    0.161116360517305    0.189669618995228  0.0000
  O2     O2        0.798305917606288    0.201239041457092    0.805618973864252  0.0000
  O2     O2        0.754675804748921    0.858988870935572    0.807474222484706  0.0000
  O3     O3        0.136596407990616    0.806971987866122    0.204274728492998  0.0000
  O2     O2        0.258867343971289    0.476649670755865    0.634020709550256  0.0000
  O2     O2        0.692886122633649    0.565309973000428    0.377130308101494  0.0000
  O2     O2        0.222412389492693    0.143253567097119    0.683195833062212  0.0000
  O3     O3        0.802418150897686    0.259405983765338    0.358187114894913  0.0000
  O3     O3        0.704718501933049    0.903730690012021    0.326492898803891  0.0000
  O2     O2        0.185174178549736    0.798761557516400    0.677210896533580  0.0000
  O3     O3        0.017792817502380    0.993909277738909    0.475161303322600  0.0000
  O1     O1        0.909241551158196    0.052822054718475    0.197243020026626  0.0000
  O2     O2        0.966372039772206    0.996604531271085    0.708345555279243  0.0000
  O3     O3        0.007753479116538    0.001366548662563    0.968060933268633  0.0000
