data_c00047.vasp
_audit_creation_method             Generated by GULP
_audit_author_name                 Salvador R. G. Balestra
_symmetry_space_group_name_H-M     'P 1             '
_symmetry_Int_Tables_number        1

loop_
_symmetry_equiv_pos_site_id
_symmetry_equiv_pos_as_xyz
_cell_length_a                        9.1493
_cell_length_b                        7.6505
_cell_length_c                       10.2236
_cell_angle_alpha                   89.9022
_cell_angle_beta                   110.6411
_cell_angle_gamma                   87.2237

loop_
_atom_site_label
_atom_site_type_symbol
_atom_site_fract_x
_atom_site_fract_y
_atom_site_fract_z
_atom_site_charge
  Ge     Ge        0.331050000000005    0.296920000000000    0.607380000000035  0.0000
  Ge     Ge        0.676593487043269    0.651278899959101    0.363400251745184  0.0000
  Ge     Ge        0.868564757148987    0.959549897834264    0.309206612457081  0.0000
  Si     Si        0.278383940226803    0.302404389026893    0.282068960794334  0.0000
  Si     Si        0.699028118082014    0.248218397426741    0.679216018963292  0.0000
  Si     Si        0.720248303154801    0.654755503049837    0.686242049021119  0.0000
  Si     Si        0.321898999295805    0.684357479869634    0.291234679113310  0.0000
  Si     Si        0.643095210983723    0.245714305207030    0.362065196559040  0.0000
  Si     Si        0.372748986910361    0.686691332688782    0.614587347510411  0.0000
  Si     Si        0.131081211185823    0.995120670203168    0.618951635763507  0.0000
  Si     Si        0.084455486684857    0.995671323498775    0.137204556728348  0.0000
  Si     Si        0.940943039449676    0.943278984351262    0.819160414862275  0.0000
  O3     O3        0.259071308842851    0.267633681037678    0.428822538274634  0.0000
  O2     O2        0.697571569507597    0.194325914094133    0.526583957869827  0.0000
  O3     O3        0.719663581128633    0.711211700944781    0.535427282662499  0.0000
  O2     O2        0.373542824799804    0.653846265324443    0.458403599256360  0.0000
  O2     O2        0.238364145425120    0.504998277895319    0.227178636079076  0.0000
  O2     O2        0.756014840131180    0.445993509027176    0.711717381827440  0.0000
  O2     O2        0.456218980476303    0.257184654121843    0.296250700740426  0.0000
  O3     O3        0.527427392588069    0.235184139911311    0.683562097270647  0.0000
  O2     O2        0.555356268818544    0.707306782604939    0.706445835240249  0.0000
  O3     O3        0.481545107006819    0.708998582574069    0.264887119420229  0.0000
  O2     O2        0.162250298444989    0.182472869079002    0.166775000965780  0.0000
  O2     O2        0.821951320433963    0.113822809043441    0.789035849451146  0.0000
  O2     O2        0.850747988030289    0.763960215815909    0.799682112540268  0.0000
  O2     O2        0.200433792973220    0.847773117773827    0.240027823434997  0.0000
  O3     O3        0.308625853357568    0.511349775114827    0.654254099335246  0.0000
  O3     O3        0.710432866944619    0.430587709892737    0.347260672578206  0.0000
  O3     O3        0.213424072893816    0.175257270617453    0.667668318420950  0.0000
  O3     O3        0.704792153669097    0.096371154699410    0.285530723242970  0.0000
  O1     O1        0.805347768423104    0.752981375442113    0.306165038342761  0.0000
  O2     O2        0.272737618402432    0.855222683162156    0.628994526718921  0.0000
  O3     O3        0.015328605226499    0.008795067690249    0.461071804932064  0.0000
  O3     O3        0.926245760466173    0.997592303487746    0.168802341017215  0.0000
  O2     O2        0.044254921891956    0.937901138581985    0.721467137245294  0.0000
  O2     O2        0.057030242366851    0.947985210661487    0.978225182148539  0.0000
