data_c00055.vasp
_audit_creation_method             Generated by GULP
_audit_author_name                 Salvador R. G. Balestra
_symmetry_space_group_name_H-M     'P 1             '
_symmetry_Int_Tables_number        1

loop_
_symmetry_equiv_pos_site_id
_symmetry_equiv_pos_as_xyz
_cell_length_a                        9.1594
_cell_length_b                        7.7127
_cell_length_c                       10.0659
_cell_angle_alpha                   89.7262
_cell_angle_beta                   107.3930
_cell_angle_gamma                   89.9057

loop_
_atom_site_label
_atom_site_type_symbol
_atom_site_fract_x
_atom_site_fract_y
_atom_site_fract_z
_atom_site_charge
  Ge     Ge        0.331050000000005    0.296920000000000    0.607380000000035  0.0000
  Ge     Ge        0.881631609770049    0.995834572087278    0.307044790507435  0.0000
  Ge     Ge        0.912412775269220    0.989670294946162    0.812097212730171  0.0000
  Si     Si        0.315402678412758    0.295366612840670    0.283450204196998  0.0000
  Si     Si        0.690709115043026    0.291153764450570    0.683824082296842  0.0000
  Si     Si        0.687501378030630    0.696942529814567    0.681731245651400  0.0000
  Si     Si        0.317680308627118    0.689819626789705    0.285786283990833  0.0000
  Si     Si        0.670096922747614    0.292457448819723    0.370180806340149  0.0000
  Si     Si        0.670300520865986    0.698162069968873    0.369615754052970  0.0000
  Si     Si        0.335307837506670    0.694593253033141    0.605054053064300  0.0000
  Si     Si        0.115790961682557    0.994379082628866    0.608323768168730  0.0000
  Si     Si        0.105175007082610    0.994756122020581    0.125725179783867  0.0000
  O3     O3        0.287612934160247    0.267514998643351    0.430469253554778  0.0000
  O2     O2        0.709340711068694    0.240423663708666    0.533106791385892  0.0000
  O2     O2        0.709161747698317    0.749065387612004    0.532315270524266  0.0000
  O2     O2        0.299113346047150    0.699193198390612    0.438571996679743  0.0000
  O2     O2        0.277060449184446    0.493994153538754    0.230024353303306  0.0000
  O2     O2        0.723913488475053    0.494395031275689    0.711976956591077  0.0000
  O2     O2        0.491579134833643    0.254154599560874    0.295015443533877  0.0000
  O3     O3        0.520498146506349    0.247420345513592    0.684937714100032  0.0000
  O2     O2        0.513324187714567    0.735597221255885    0.677172954551740  0.0000
  O2     O2        0.491253334075727    0.736038266763365    0.291801243939961  0.0000
  O2     O2        0.204979891219610    0.167299456133326    0.174162873207690  0.0000
  O3     O3        0.809004914963372    0.179696871416253    0.800408256287255  0.0000
  O3     O3        0.794665842929536    0.811361748559830    0.801510082688002  0.0000
  O2     O2        0.201998019732542    0.822531142967099    0.186256898766853  0.0000
  O3     O3        0.295233344335404    0.506129388986514    0.648458214133042  0.0000
  O2     O2        0.705786222146980    0.495271160180422    0.356254845506907  0.0000
  O3     O3        0.210033392313870    0.167799093140450    0.664719905274181  0.0000
  O3     O3        0.771764274754294    0.179636909066864    0.300827551658895  0.0000
  O3     O3        0.772822277279928    0.811622462441409    0.300963265729099  0.0000
  O2     O2        0.236326987913247    0.835975569943302    0.654743495380659  0.0000
  O3     O3        0.047734226773927    0.998690241120579    0.442014372685175  0.0000
  O3     O3        0.946214055620356    0.998457711581315    0.161982116287215  0.0000
  O3     O3        0.977918755667295    0.971058256906291    0.669812875806584  0.0000
  O3     O3        0.063710288405608    0.986992764368699    0.960083061874964  0.0000
