data_c00041.vasp
_audit_creation_method             Generated by GULP
_audit_author_name                 Salvador R. G. Balestra
_symmetry_space_group_name_H-M     'P 1             '
_symmetry_Int_Tables_number        1

loop_
_symmetry_equiv_pos_site_id
_symmetry_equiv_pos_as_xyz
_cell_length_a                        9.1269
_cell_length_b                        7.6822
_cell_length_c                       10.0934
_cell_angle_alpha                   89.3222
_cell_angle_beta                   107.2456
_cell_angle_gamma                   89.0352

loop_
_atom_site_label
_atom_site_type_symbol
_atom_site_fract_x
_atom_site_fract_y
_atom_site_fract_z
_atom_site_charge
  Ge     Ge        0.313819999999964    0.296860000000038    0.309830000000034  0.0000
  Ge     Ge        0.126427365210551    0.981980423836840    0.635692266456392  0.0000
  Ge     Ge        0.097914109607884    0.995226475065165    0.149756322424736  0.0000
  Si     Si        0.687620338276524    0.259496907922987    0.710659650826804  0.0000
  Si     Si        0.708510418390565    0.653726485920575    0.718652948206068  0.0000
  Si     Si        0.339868998821490    0.706206514698809    0.324303469269616  0.0000
  Si     Si        0.336015232101668    0.284436107622955    0.628349999736827  0.0000
  Si     Si        0.672858992450984    0.266331369453074    0.393223811064715  0.0000
  Si     Si        0.693359917827883    0.663309091695731    0.404211148402638  0.0000
  Si     Si        0.355989318575509    0.686252459087893    0.635049696427548  0.0000
  Si     Si        0.887394018000248    0.966109387197834    0.338874367216490  0.0000
  Si     Si        0.912159788108613    0.957856034335063    0.833004475160605  0.0000
  O3     O3        0.306698959334476    0.226082529918402    0.470578971131361  0.0000
  O2     O2        0.689346893104277    0.225087867099713    0.554133494049326  0.0000
  O2     O2        0.723509003906151    0.696153162605005    0.566863258371124  0.0000
  O2     O2        0.332415708229360    0.754724624228552    0.477798234913537  0.0000
  O3     O3        0.273354927091133    0.516780707455863    0.285531514162091  0.0000
  O2     O2        0.751969485216909    0.451300216823918    0.758186963386760  0.0000
  O3     O3        0.498471845007074    0.251582943169081    0.302308515121764  0.0000
  O2     O2        0.513567321294625    0.246380416591172    0.715352753589499  0.0000
  O2     O2        0.535306980313625    0.693001462975130    0.720965025094340  0.0000
  O2     O2        0.516692965356463    0.706492415463096    0.322674418188902  0.0000
  O1     O1        0.175417027275859    0.196363229205227    0.185592010940586  0.0000
  O2     O2        0.791085728020322    0.119404772716985    0.818048013258958  0.0000
  O2     O2        0.823148073908083    0.775561358964653    0.828578166226072  0.0000
  O3     O3        0.247113514156139    0.848787035351850    0.217318936585490  0.0000
  O2     O2        0.297812550499222    0.489189937187913    0.632813787825771  0.0000
  O2     O2        0.731730447796777    0.462343486004033    0.379582330752699  0.0000
  O3     O3        0.225442569803426    0.171851571635695    0.688908522265217  0.0000
  O2     O2        0.779586853005208    0.132920963907711    0.341683659154020  0.0000
  O2     O2        0.802698865683413    0.786242105722747    0.348788580543053  0.0000
  O3     O3        0.254726525975725    0.809590654124714    0.698487710288746  0.0000
  O3     O3        0.047702415460085    0.976512630032950    0.458100811635989  0.0000
  O3     O3        0.933583342626371    0.966997874041135    0.198020889924852  0.0000
  O3     O3        0.976668852575958    0.970014027315841    0.702707934201875  0.0000
  O3     O3        0.047338470518483    0.967782738996446    0.972432336339206  0.0000
