data_c00006.vasp
_audit_creation_method             Generated by GULP
_audit_author_name                 Salvador R. G. Balestra
_symmetry_space_group_name_H-M     'P 1             '
_symmetry_Int_Tables_number        1

loop_
_symmetry_equiv_pos_site_id
_symmetry_equiv_pos_as_xyz
_cell_length_a                        9.1531
_cell_length_b                        7.6651
_cell_length_c                        9.9508
_cell_angle_alpha                   84.2958
_cell_angle_beta                   108.9066
_cell_angle_gamma                   90.3759

loop_
_atom_site_label
_atom_site_type_symbol
_atom_site_fract_x
_atom_site_fract_y
_atom_site_fract_z
_atom_site_charge
  Ge     Ge        0.313819999999964    0.296860000000038    0.309830000000034  0.0000
  Ge     Ge        0.688990666113994    0.659188987017926    0.737193268070600  0.0000
  Ge     Ge        0.351313567879705    0.221521129365045    0.651792359918282  0.0000
  Si     Si        0.707753303463987    0.249371852467832    0.724824749994232  0.0000
  Si     Si        0.323642060431040    0.683741352633881    0.336521222585677  0.0000
  Si     Si        0.672915904265158    0.317544268961472    0.397380439509178  0.0000
  Si     Si        0.668542100309785    0.717501343502573    0.410484186459104  0.0000
  Si     Si        0.340986668824487    0.615554352809621    0.657475215715204  0.0000
  Si     Si        0.878201373575771    0.021480264437985    0.362598922213325  0.0000
  Si     Si        0.125205973072165    0.924625792785922    0.666554157989247  0.0000
  Si     Si        0.098159763310493    0.000004354790510    0.186633376739502  0.0000
  Si     Si        0.930393801642513    0.928876138202914    0.872008541461196  0.0000
  O1     O1        0.301430435639426    0.211797493983743    0.471382037228952  0.0000
  O2     O2        0.683405458967146    0.246227421787071    0.557397543068354  0.0000
  O3     O3        0.700064371643379    0.748083352798870    0.574081501207609  0.0000
  O2     O2        0.367503839106295    0.603958436468587    0.503363805608927  0.0000
  O3     O3        0.256410723499188    0.516964424528540    0.256056482781274  0.0000
  O3     O3        0.747223425201383    0.441744709056783    0.771797297429530  0.0000
  O3     O3        0.499373111735741    0.292461823834590    0.300741351892455  0.0000
  O3     O3        0.546968635798788    0.186203289136827    0.740672721959471  0.0000
  O3     O3        0.506121769392478    0.677846539256455    0.752775715947938  0.0000
  O2     O2        0.486534440887337    0.748287512659275    0.319338736229355  0.0000
  O3     O3        0.192365467840229    0.174746323620760    0.184837308411627  0.0000
  O2     O2        0.848139662931198    0.119453584428990    0.817176679822880  0.0000
  O3     O3        0.806591266290342    0.780265109159523    0.864384088966120  0.0000
  O2     O2        0.208068245222303    0.849399842694714    0.298463853720791  0.0000
  O3     O3        0.302881504792631    0.419336656551864    0.700377850748799  0.0000
  O2     O2        0.721097356448097    0.521414079692811    0.394246924801128  0.0000
  O3     O3        0.256477752946459    0.061544605708043    0.722833474408222  0.0000
  O2     O2        0.788132017443124    0.206611321361248    0.344395532690593  0.0000
  O2     O2        0.764348619119644    0.858494576718440    0.345296042889216  0.0000
  O2     O2        0.200483707766675    0.742690662448241    0.648689338799935  0.0000
  O2     O2        0.012000127885535    0.005512302177777    0.513905687552517  0.0000
  O2     O2        0.949797040529273    0.031833657422586    0.235098504582684  0.0000
  O2     O2        0.032911716795736    0.879415777302067    0.776320947810604  0.0000
  O2     O2        0.044133069456803    0.931371618748584    0.032108689192362  0.0000
