data_c00045.vasp
_audit_creation_method             Generated by GULP
_audit_author_name                 Salvador R. G. Balestra
_symmetry_space_group_name_H-M     'P 1             '
_symmetry_Int_Tables_number        1

loop_
_symmetry_equiv_pos_site_id
_symmetry_equiv_pos_as_xyz
_cell_length_a                        9.1647
_cell_length_b                        7.6829
_cell_length_c                       10.2843
_cell_angle_alpha                   88.9832
_cell_angle_beta                   109.5906
_cell_angle_gamma                   91.3276

loop_
_atom_site_label
_atom_site_type_symbol
_atom_site_fract_x
_atom_site_fract_y
_atom_site_fract_z
_atom_site_charge
  Ge     Ge        0.331050000000005    0.296920000000000    0.607380000000035  0.0000
  Ge     Ge        0.658476189318397    0.343048813100145    0.363332509778988  0.0000
  Ge     Ge        0.862150688287647    0.036508083132745    0.315498625103407  0.0000
  Si     Si        0.299803369482526    0.302428760631710    0.286720020128788  0.0000
  Si     Si        0.689069493414764    0.325117463039874    0.683270630534199  0.0000
  Si     Si        0.666737784713481    0.725490265587961    0.679091849714797  0.0000
  Si     Si        0.278068447788822    0.701949901188477    0.289272130282022  0.0000
  Si     Si        0.634019922726011    0.746289620392183    0.367689051372150  0.0000
  Si     Si        0.309170135620909    0.698604285704429    0.600542242117258  0.0000
  Si     Si        0.107080593564280    0.997061614038632    0.624234236249469  0.0000
  Si     Si        0.070103852085622    0.003898487033052    0.128926813613887  0.0000
  Si     Si        0.897689831847689    0.016984138575302    0.812135287398625  0.0000
  O3     O3        0.311772904798079    0.245065891543865    0.440403245875119  0.0000
  O3     O3        0.681886288085571    0.277793976931907    0.530612630085926  0.0000
  O2     O2        0.666890045366965    0.787646461228304    0.528849444153821  0.0000
  O2     O2        0.273379890449046    0.746820450167082    0.439679090886819  0.0000
  O2     O2        0.233322975700220    0.499088305120393    0.257425276197799  0.0000
  O2     O2        0.733041111170293    0.530480355168874    0.711648024461264  0.0000
  O3     O3        0.466071312855102    0.298956572686295    0.268403706262265  0.0000
  O3     O3        0.525043094271772    0.287627482694170    0.702752443229906  0.0000
  O2     O2        0.492395469048764    0.726861900500756    0.682700579214745  0.0000
  O2     O2        0.450032644946324    0.738252725857734    0.285795259726207  0.0000
  O2     O2        0.180534648254580    0.171470683984385    0.182897508036512  0.0000
  O2     O2        0.818208302999732    0.205305030319372    0.790033776147796  0.0000
  O2     O2        0.769741500195759    0.861542019723565    0.791075754321177  0.0000
  O2     O2        0.158730261171343    0.823263799453527    0.178252349172344  0.0000
  O3     O3        0.261871790004272    0.501784782601770    0.616536442071133  0.0000
  O3     O3        0.703483231267059    0.561240309985598    0.355777768253639  0.0000
  O3     O3        0.221785671335518    0.161065766455997    0.672764436408804  0.0000
  O1     O1        0.787077311846326    0.239736668694986    0.307164861072518  0.0000
  O3     O3        0.708559178673579    0.895897417063088    0.302051643757449  0.0000
  O2     O2        0.210989617783377    0.824095363329964    0.661014511529586  0.0000
  O3     O3        0.019202209703782    0.008095057979916    0.461418471556480  0.0000
  O3     O3        0.921096786392879    0.009576767344954    0.175233759164129  0.0000
  O2     O2        0.984460604847319    0.988400663845268    0.702990505717882  0.0000
  O2     O2        0.019359109861010    0.007421283018701    0.964218708348833  0.0000
