data_c00020.vasp
_audit_creation_method             Generated by GULP
_audit_author_name                 Salvador R. G. Balestra
_symmetry_space_group_name_H-M     'P 1             '
_symmetry_Int_Tables_number        1

loop_
_symmetry_equiv_pos_site_id
_symmetry_equiv_pos_as_xyz
_cell_length_a                        9.1506
_cell_length_b                        7.6879
_cell_length_c                       10.2446
_cell_angle_alpha                   88.3078
_cell_angle_beta                   111.0084
_cell_angle_gamma                   88.2163

loop_
_atom_site_label
_atom_site_type_symbol
_atom_site_fract_x
_atom_site_fract_y
_atom_site_fract_z
_atom_site_charge
  Ge     Ge        0.313819999999964    0.296860000000038    0.309830000000034  0.0000
  Ge     Ge        0.356682119079193    0.280629112887640    0.637074977381270  0.0000
  Ge     Ge        0.162277416116532    0.973158750641211    0.695517295275996  0.0000
  Si     Si        0.709427732282205    0.256830628956714    0.703461340530991  0.0000
  Si     Si        0.743426661555253    0.641411889821064    0.717533514135178  0.0000
  Si     Si        0.331842796195001    0.709400941889124    0.327454275834075  0.0000
  Si     Si        0.665709948676751    0.286401442846320    0.382655306205374  0.0000
  Si     Si        0.692828869673141    0.675153796453729    0.399539796900468  0.0000
  Si     Si        0.380765142967730    0.687070110971482    0.641114951588332  0.0000
  Si     Si        0.897763213911639    0.973455226058418    0.383452055837117  0.0000
  Si     Si        0.087947185777610    0.007143953992936    0.177940154951698  0.0000
  Si     Si        0.942123022378950    0.943783073742375    0.862679095452867  0.0000
  O1     O1        0.312306418716146    0.220502411247856    0.467805228903222  0.0000
  O2     O2        0.645699275904959    0.275909087361937    0.533972410682116  0.0000
  O2     O2        0.752108507243425    0.692103569361419    0.566923001402646  0.0000
  O2     O2        0.331310727147188    0.756934210243540    0.479672465135356  0.0000
  O3     O3        0.270901867942442    0.519041874845478    0.290026509218215  0.0000
  O2     O2        0.793397603196617    0.437373965436596    0.761046852103227  0.0000
  O3     O3        0.489551821159689    0.261547679964515    0.281518187847147  0.0000
  O3     O3        0.554014672127587    0.232404006465474    0.736861134476457  0.0000
  O2     O2        0.568476959389685    0.671932945673479    0.714196100205185  0.0000
  O2     O2        0.508021142647578    0.722152597172538    0.328436975020449  0.0000
  O3     O3        0.168005111481674    0.189526384201313    0.186230939496247  0.0000
  O2     O2        0.833618675701737    0.097006519113937    0.758201008378045  0.0000
  O2     O2        0.859583862608735    0.759565606048137    0.831733186721340  0.0000
  O2     O2        0.223526894568292    0.854133370795337    0.216705115883587  0.0000
  O3     O3        0.312938559666071    0.499116733339144    0.643332711758559  0.0000
  O2     O2        0.725746045724375    0.478377806824320    0.361624084778498  0.0000
  O1     O1        0.236706791738064    0.173978233046976    0.703919504615833  0.0000
  O2     O2        0.791786286011550    0.149504227714288    0.367716671752367  0.0000
  O2     O2        0.786800967567676    0.808667987429181    0.339061338113666  0.0000
  O3     O3        0.315961577877504    0.823393463065839    0.721220339472901  0.0000
  O3     O3        0.011771853041738    0.940706319935731    0.540881626596657  0.0000
  O2     O2        0.990009813001869    0.994614649860257    0.279263485792858  0.0000
  O3     O3        0.101826698309269    0.935720848729555    0.834711883380376  0.0000
  O2     O2        0.967780427048649    0.985890477518821    0.021137400891322  0.0000
