data_c00056.vasp
_audit_creation_method             Generated by GULP
_audit_author_name                 Salvador R. G. Balestra
_symmetry_space_group_name_H-M     'P 1             '
_symmetry_Int_Tables_number        1

loop_
_symmetry_equiv_pos_site_id
_symmetry_equiv_pos_as_xyz
_cell_length_a                        9.1429
_cell_length_b                        7.6880
_cell_length_c                       10.1074
_cell_angle_alpha                   90.7201
_cell_angle_beta                   107.9145
_cell_angle_gamma                   88.7092

loop_
_atom_site_label
_atom_site_type_symbol
_atom_site_fract_x
_atom_site_fract_y
_atom_site_fract_z
_atom_site_charge
  Ge     Ge        0.331050000000005    0.296920000000000    0.607380000000035  0.0000
  Ge     Ge        0.127910396164600    0.994878136383218    0.671948252110490  0.0000
  Ge     Ge        0.099192502151374    0.986602311558326    0.168407807079191  0.0000
  Si     Si        0.317087659388478    0.287120538827051    0.291214043947416  0.0000
  Si     Si        0.688895902076216    0.271491647585263    0.692509421933088  0.0000
  Si     Si        0.708611049149004    0.665697451497019    0.692315071662568  0.0000
  Si     Si        0.334285974975096    0.692068431896653    0.296546170788434  0.0000
  Si     Si        0.667694720849074    0.267570990155025    0.372474103902817  0.0000
  Si     Si        0.688105924704927    0.660328312690575    0.376521544226131  0.0000
  Si     Si        0.353238663967401    0.706348132349115    0.606815243000759  0.0000
  Si     Si        0.890171030436680    0.963580683958540    0.370579370763629  0.0000
  Si     Si        0.911808008976338    0.968731377489836    0.853521008327157  0.0000
  O3     O3        0.304137960001786    0.226373909960726    0.438647617049254  0.0000
  O2     O2        0.680835257632240    0.240777874157916    0.532729398359182  0.0000
  O2     O2        0.723241082508716    0.695128885516041    0.540152066273835  0.0000
  O2     O2        0.323125811225621    0.760085963091932    0.445679612501632  0.0000
  O2     O2        0.280372205063734    0.492923375146558    0.273404550419170  0.0000
  O2     O2        0.750693641698806    0.465981932501097    0.738972186419213  0.0000
  O2     O2        0.489518944965577    0.248088327235051    0.283379329615930  0.0000
  O3     O3        0.520347118858940    0.252392803111256    0.704586835377808  0.0000
  O2     O2        0.534902729434149    0.707714828434350    0.689209422389190  0.0000
  O2     O2        0.510141715802073    0.703655302906411    0.295864172623551  0.0000
  O3     O3        0.197567396737447    0.177783194827787    0.173858824913738  0.0000
  O2     O2        0.807197593059076    0.135519429514442    0.787574264198819  0.0000
  O2     O2        0.824348929405611    0.789608291743330    0.800732036169795  0.0000
  O3     O3        0.226253498534788    0.812313110607183    0.179292370325647  0.0000
  O3     O3        0.289576751130942    0.516136209515837    0.612182432243715  0.0000
  O2     O2        0.726290025187474    0.459149403321742    0.349604482729849  0.0000
  O1     O1        0.204944558417959    0.195183309457891    0.671858305800676  0.0000
  O2     O2        0.771273365485096    0.127185530649061    0.322166380133642  0.0000
  O2     O2        0.795938005696416    0.784935673704473    0.321862138513829  0.0000
  O3     O3        0.272666274726447    0.844575393364319    0.679622202933174  0.0000
  O3     O3        0.963307189189215    0.965037343373110    0.535779079484630  0.0000
  O3     O3        0.025609057738244    0.976938030141304    0.305402506844893  0.0000
  O3     O3        0.071026658211655    0.973285697165380    0.818948846890128  0.0000
  O3     O3        0.948585635256038    0.976682678848266    0.018107970607134  0.0000
