data_c00036.vasp
_audit_creation_method             Generated by GULP
_audit_author_name                 Salvador R. G. Balestra
_symmetry_space_group_name_H-M     'P 1             '
_symmetry_Int_Tables_number        1

loop_
_symmetry_equiv_pos_site_id
_symmetry_equiv_pos_as_xyz
_cell_length_a                        9.0753
_cell_length_b                        7.6974
_cell_length_c                       10.0915
_cell_angle_alpha                   88.5042
_cell_angle_beta                   106.3180
_cell_angle_gamma                   90.4934

loop_
_atom_site_label
_atom_site_type_symbol
_atom_site_fract_x
_atom_site_fract_y
_atom_site_fract_z
_atom_site_charge
  Ge     Ge        0.313819999999964    0.296860000000038    0.309830000000034  0.0000
  Ge     Ge        0.319161345626932    0.692970664951924    0.627653898199528  0.0000
  Ge     Ge        0.086089686135771    0.998705642458985    0.174597836112598  0.0000
  Si     Si        0.671435402535139    0.289331060069988    0.708090532696092  0.0000
  Si     Si        0.677059957350957    0.684184429267022    0.716550162350833  0.0000
  Si     Si        0.312567041983950    0.706394166378927    0.314758255177777  0.0000
  Si     Si        0.318456279486561    0.281003390134503    0.622320962634802  0.0000
  Si     Si        0.671997966148468    0.305186072596051    0.395256138818644  0.0000
  Si     Si        0.666355528337208    0.698701254283026    0.401072738379479  0.0000
  Si     Si        0.885505921898850    0.001672933216452    0.391184237710675  0.0000
  Si     Si        0.110458378538422    0.987170254330536    0.689227399782601  0.0000
  Si     Si        0.886020742873869    0.986086765897166    0.866024306922114  0.0000
  O3     O3        0.302034535217115    0.217845121089452    0.468951572369922  0.0000
  O2     O2        0.674828113237048    0.258437188873814    0.552520805819775  0.0000
  O2     O2        0.674791533075505    0.729934171050822    0.559578494088023  0.0000
  O3     O3        0.300848736924763    0.771268573086890    0.462173379895610  0.0000
  O3     O3        0.256258876121912    0.509894705415279    0.294264080063080  0.0000
  O2     O2        0.729406162548598    0.483680479854810    0.754246363699512  0.0000
  O3     O3        0.500931101188237    0.278813555186116    0.300688920252564  0.0000
  O2     O2        0.496593065911010    0.268074908709178    0.713377300614909  0.0000
  O3     O3        0.507200298198881    0.711252068566826    0.728328261793386  0.0000
  O2     O2        0.490214204224748    0.718282300689609    0.311361471606034  0.0000
  O1     O1        0.193951352180707    0.183119248999141    0.181339354678905  0.0000
  O2     O2        0.777616235808078    0.151188563953147    0.810611750606446  0.0000
  O2     O2        0.797949116330375    0.806507586139677    0.818511581813227  0.0000
  O3     O3        0.210006651422102    0.824878353728501    0.193099471790523  0.0000
  O3     O3        0.262659404136421    0.477523798222623    0.621077247110538  0.0000
  O2     O2        0.725235559079548    0.505309762420336    0.382858584277279  0.0000
  O2     O2        0.221036695068474    0.152489718284049    0.693190428032326  0.0000
  O2     O2        0.790081738915585    0.181248800586799    0.350491124208897  0.0000
  O2     O2        0.769938546113139    0.838383507672179    0.348198386348873  0.0000
  O3     O3        0.204143451632278    0.810237108258796    0.701213899122376  0.0000
  O2     O2        0.965066624357212    0.991010396149685    0.554842644174665  0.0000
  O3     O3        0.013854170829295    0.995338792210993    0.315251123913748  0.0000
  O2     O2        0.043153266624490    0.998498205945435    0.820737369652754  0.0000
  O3     O3        0.933597957645370    0.987510192478714    0.029840133721177  0.0000
