data_c00053.vasp
_audit_creation_method             Generated by GULP
_audit_author_name                 Salvador R. G. Balestra
_symmetry_space_group_name_H-M     'P 1             '
_symmetry_Int_Tables_number        1

loop_
_symmetry_equiv_pos_site_id
_symmetry_equiv_pos_as_xyz
_cell_length_a                       17.2013
_cell_length_b                        7.6117
_cell_length_c                       10.2599
_cell_angle_alpha                   90.6087
_cell_angle_beta                    90.1007
_cell_angle_gamma                   90.1138

loop_
_atom_site_label
_atom_site_type_symbol
_atom_site_fract_x
_atom_site_fract_y
_atom_site_fract_z
_atom_site_charge
  Ge     Ge        0.052090000000021    0.000000000000000    0.372269999999958  0.0000
  Ge     Ge        0.058876588974740    0.994813583915366    0.891776368314093  0.0000
  Ge     Ge        0.654242132128791    0.665195292902645    0.703780385511826  0.0000
  Si     Si        0.454341060010174    0.988834930716117    0.362723766041140  0.0000
  Si     Si        0.952547702022533    0.984965071210567    0.635179460981357  0.0000
  Si     Si        0.550385504412544    0.972138532173160    0.622220231462484  0.0000
  Si     Si        0.562780146671142    0.988850918905994    0.116148588037723  0.0000
  Si     Si        0.944029234635104    0.997156140429541    0.128366469875853  0.0000
  Si     Si        0.449335047488595    0.985301942732892    0.877846183496633  0.0000
  Si     Si        0.160123506566265    0.302860779544820    0.268715679748305  0.0000
  Si     Si        0.351601482949078    0.680020860416536    0.275509827104529  0.0000
  Si     Si        0.848314992343549    0.292085634077253    0.711314621652698  0.0000
  Si     Si        0.837051568899681    0.694939337807060    0.702324508766839  0.0000
  Si     Si        0.668488534824494    0.255105452272345    0.715144957465604  0.0000
  Si     Si        0.173058273010714    0.712534758629752    0.269570816341360  0.0000
  Si     Si        0.338880392434023    0.276622068900638    0.272683158400535  0.0000
  Si     Si        0.671562797164640    0.275282154531414    0.019562798449627  0.0000
  Si     Si        0.835614571427895    0.705811179690411    0.009172192764027  0.0000
  Si     Si        0.338869912976366    0.275226490739352    0.967755518053510  0.0000
  Si     Si        0.176084344679733    0.710727612143037    0.968516612797390  0.0000
  Si     Si        0.355057145625074    0.671703065342039    0.971032703666668  0.0000
  Si     Si        0.159584785657684    0.309255712300059    0.967555189391112  0.0000
  Si     Si        0.656075954467267    0.675839857988197    0.013865798230593  0.0000
  Si     Si        0.851111781874438    0.307594657122549    0.015287445911649  0.0000
  O3     O3        0.099614873044152    0.198325482117305    0.354721061624321  0.0000
  O2     O2        0.410689383179426    0.800672059548676    0.358502433337569  0.0000
  O2     O2        0.905063484019520    0.168737616026572    0.627056877797060  0.0000
  O3     O3        0.587202442659056    0.780139767764394    0.614308135498919  0.0000
  O2     O2        0.891893671258511    0.822463547924857    0.618859918474228  0.0000
  O2     O2        0.623223666997342    0.105815854616874    0.634609974890647  0.0000
  O3     O3        0.118690120081566    0.832553482242305    0.356489658528536  0.0000
  O2     O2        0.390806344371057    0.143072688296962    0.354288282286261  0.0000
  O3     O3        0.019722309464312    0.983828450336846    0.530627102273182  0.0000
  O2     O2        0.499380319069875    0.013061825749174    0.496952707336498  0.0000
  O3     O3        0.969485680738879    0.985417408422952    0.277428906122844  0.0000
  O2     O2        0.518370875780517    0.003369163066588    0.251066042586480  0.0000
  O3     O3        0.989505964597763    0.963782021119663    0.777176177574536  0.0000
  O2     O2        0.494040977134988    0.998866046932543    0.744042886750205  0.0000
  O2     O2        0.628712302112718    0.140002147701082    0.113857772858358  0.0000
  O2     O2        0.879851934431071    0.849619802888350    0.094977141936870  0.0000
  O2     O2        0.381874852703191    0.131541373563756    0.879366307952797  0.0000
  O3     O3        0.131546583148167    0.839006169003103    0.875071321068434  0.0000
  O2     O2        0.413099165761534    0.790371052672556    0.887682034374304  0.0000
  O3     O3        0.101793588334880    0.199689025115448    0.877902775642070  0.0000
  O2     O2        0.601383962315530    0.796231113776011    0.104884765327421  0.0000
  O2     O2        0.909341465414232    0.190987490802581    0.099718869068528  0.0000
  O2     O2        0.505391272969438    0.027484363534420    0.997847446699246  0.0000
  O3     O3        0.020163632016635    0.964025705949351    0.044214506466506  0.0000
  O2     O2        0.147392056488302    0.510583621353058    0.287242682698993  0.0000
  O2     O2        0.365998037484253    0.475443564411087    0.306575501426283  0.0000
  O2     O2        0.865139801531916    0.494504485185555    0.677611600016932  0.0000
  O3     O3        0.636167425941292    0.444786753051432    0.680512518958904  0.0000
  O2     O2        0.248401179818018    0.252481817441097    0.309404815900745  0.0000
  O2     O2        0.263401065646650    0.732625157109642    0.311201247558011  0.0000
  O2     O2        0.759377442357967    0.244853331353146    0.677238434972908  0.0000
  O3     O3        0.748474812103066    0.713184469207469    0.658601864481431  0.0000
  O2     O2        0.145875716361221    0.249688781007874    0.117282934643722  0.0000
  O2     O2        0.367979000749009    0.715085462718938    0.123445562865478  0.0000
  O2     O2        0.864629342709499    0.258429340480014    0.863995791401003  0.0000
  O3     O3        0.639931210192387    0.722941667122976    0.865196419459503  0.0000
  O2     O2        0.843366243948068    0.744110681453565    0.855901909597237  0.0000
  O2     O2        0.659711637814637    0.219156202773803    0.869236731988754  0.0000
  O2     O2        0.164594640023061    0.770673996013001    0.119193409235635  0.0000
  O2     O2        0.349963054966429    0.233417185667129    0.120035553897611  0.0000
  O2     O2        0.637571000159885    0.471199212155838    0.041019715920280  0.0000
  O2     O2        0.870535740685841    0.513041206706365    0.039998111756818  0.0000
  O2     O2        0.373959401690668    0.468359364548870    0.939354520019973  0.0000
  O2     O2        0.142113267825244    0.514416202715060    0.950387859778866  0.0000
  O2     O2        0.762499273627738    0.269940669295202    0.055628299804009  0.0000
  O2     O2        0.745722695292314    0.713932372353124    0.049091238803976  0.0000
  O2     O2        0.248586987953398    0.268573024713576    0.929227020549904  0.0000
  O2     O2        0.266897253539751    0.713848697473051    0.931966972557960  0.0000
