data_c00045.vasp
_audit_creation_method             Generated by GULP
_audit_author_name                 Salvador R. G. Balestra
_symmetry_space_group_name_H-M     'P 1             '
_symmetry_Int_Tables_number        1

loop_
_symmetry_equiv_pos_site_id
_symmetry_equiv_pos_as_xyz
_cell_length_a                       17.3021
_cell_length_b                        7.6406
_cell_length_c                       10.0924
_cell_angle_alpha                   90.3562
_cell_angle_beta                    90.4108
_cell_angle_gamma                   90.3209

loop_
_atom_site_label
_atom_site_type_symbol
_atom_site_fract_x
_atom_site_fract_y
_atom_site_fract_z
_atom_site_charge
  Ge     Ge        0.052090000000021    0.000000000000000    0.372269999999958  0.0000
  Ge     Ge        0.441340181590269    0.008979111105556    0.897846300444301  0.0000
  Ge     Ge        0.662740324207353    0.709840331437579    0.717958366914391  0.0000
  Si     Si        0.450021092470892    0.017459905897006    0.385398387450156  0.0000
  Si     Si        0.948878010750368    0.994724407867094    0.631528741601656  0.0000
  Si     Si        0.549317294891018    0.999668296851278    0.641015555060738  0.0000
  Si     Si        0.555378177652188    0.005013736297723    0.143436949918838  0.0000
  Si     Si        0.941829859592099    0.006103245326858    0.114225223751971  0.0000
  Si     Si        0.053060287813783    0.997641404037284    0.877676597864804  0.0000
  Si     Si        0.169168222589798    0.291556818060721    0.296434765950327  0.0000
  Si     Si        0.337648944027994    0.722543999078123    0.282652101913881  0.0000
  Si     Si        0.836511948214357    0.288835132707161    0.732219495787981  0.0000
  Si     Si        0.843790571928476    0.691155338899948    0.726531637590245  0.0000
  Si     Si        0.658245609234637    0.299227407513438    0.722884932055547  0.0000
  Si     Si        0.159808841576899    0.695611168056687    0.297978619820787  0.0000
  Si     Si        0.347213408780931    0.318254542515415    0.281865411495899  0.0000
  Si     Si        0.654516530409774    0.311445188447920    0.033008838817406  0.0000
  Si     Si        0.839805073480465    0.695147883352966    0.039003064819393  0.0000
  Si     Si        0.339901553322395    0.321238331195093    0.973863542345214  0.0000
  Si     Si        0.148697403122791    0.691107794264821    0.990103039425152  0.0000
  Si     Si        0.326638204036907    0.719691086996011    0.974199635321947  0.0000
  Si     Si        0.161231237765674    0.290629776784294    0.988548475713190  0.0000
  Si     Si        0.661734680208818    0.714347863438978    0.033831605566590  0.0000
  Si     Si        0.832228861846189    0.298668427758048    0.043078283621044  0.0000
  O3     O3        0.119034836957828    0.168449343664732    0.388031121520380  0.0000
  O2     O2        0.391916111313475    0.854082355244625    0.365287725488508  0.0000
  O2     O2        0.890317335774188    0.154345453582824    0.655375839272367  0.0000
  O3     O3        0.603982276383067    0.834167532616961    0.618901897599318  0.0000
  O2     O2        0.905858961415596    0.809278134873802    0.650835319935947  0.0000
  O2     O2        0.603812807482837    0.171798949368645    0.636901620790521  0.0000
  O3     O3        0.103748780356595    0.808075262920387    0.387674505157762  0.0000
  O2     O2        0.406061462840564    0.200606713694703    0.365224318699629  0.0000
  O3     O3        0.978396688239825    0.008943308656556    0.483740837718293  0.0000
  O2     O2        0.479938632089691    0.013487524850888    0.535948543812167  0.0000
  O3     O3        0.008280676199337    0.018202231107789    0.220154205409558  0.0000
  O2     O2        0.525451448743488    0.004763116295998    0.293937828685019  0.0000
  O2     O2        0.024547031830966    0.005399494075920    0.726054280878917  0.0000
  O3     O3        0.511634053107838    0.981000656990705    0.784218585448499  0.0000
  O2     O2        0.597094943572408    0.190760392296756    0.115876823598836  0.0000
  O2     O2        0.895365708548308    0.822159730396820    0.123966584982749  0.0000
  O3     O3        0.395443533715525    0.208641983877887    0.883425897967244  0.0000
  O2     O2        0.090907188372916    0.808566316194464    0.904406631768137  0.0000
  O3     O3        0.370330377157078    0.849872415104896    0.879992295266717  0.0000
  O2     O2        0.114303323138436    0.154097572751586    0.898440455597829  0.0000
  O2     O2        0.614097538500990    0.843817806104882    0.127323144098213  0.0000
  O2     O2        0.881162163985080    0.165071801018782    0.131391678330328  0.0000
  O3     O3        0.481689508559910    0.979475809692521    0.051525762024762  0.0000
  O2     O2        0.979155618800332    0.024541951187105    0.969364185641284  0.0000
  O2     O2        0.144974086260411    0.491410746316455    0.323663846736467  0.0000
  O2     O2        0.364767058191300    0.523308423436474    0.308772179800034  0.0000
  O2     O2        0.861951289586685    0.486936791946305    0.697787690781543  0.0000
  O3     O3        0.636622000498975    0.495345382193812    0.690188884977827  0.0000
  O2     O2        0.260331497644166    0.270872092589541    0.326140328568011  0.0000
  O2     O2        0.249181562586213    0.744447220003934    0.329080146587899  0.0000
  O2     O2        0.747580105258118    0.259963345972494    0.687614659544870  0.0000
  O3     O3        0.758581328814126    0.736954063870424    0.676997549395139  0.0000
  O2     O2        0.152829334918099    0.240104063446967    0.142573713968010  0.0000
  O2     O2        0.342918002578115    0.769462590662313    0.127949271932641  0.0000
  O2     O2        0.843206594583769    0.255467992507067    0.888543288818019  0.0000
  O3     O3        0.650333121410972    0.767349321124782    0.882292681510840  0.0000
  O2     O2        0.849830328811974    0.729719062892162    0.883309158050734  0.0000
  O2     O2        0.644528533339579    0.262279731324170    0.878691529782156  0.0000
  O2     O2        0.139880953114748    0.740862963538771    0.144649539244483  0.0000
  O2     O2        0.358119919956546    0.273604599616721    0.127049041091198  0.0000
  O2     O2        0.632506495099990    0.514509399692240    0.054681608322162  0.0000
  O2     O2        0.861488670780045    0.495709805223283    0.074633732157047  0.0000
  O2     O2        0.357176297161990    0.524142314954279    0.946779159117844  0.0000
  O2     O2        0.128645710331261    0.486443855099611    0.965749877805023  0.0000
  O2     O2        0.742289895486675    0.278554277134630    0.080241573998281  0.0000
  O2     O2        0.751275875946258    0.731041374561195    0.076599991759478  0.0000
  O2     O2        0.250042821243148    0.279346672448468    0.944348029170059  0.0000
  O2     O2        0.235513307540850    0.729753485554300    0.943797147058164  0.0000
