data_c00094.vasp
_audit_creation_method             Generated by GULP
_audit_author_name                 Salvador R. G. Balestra
_symmetry_space_group_name_H-M     'P 1             '
_symmetry_Int_Tables_number        1

loop_
_symmetry_equiv_pos_site_id
_symmetry_equiv_pos_as_xyz
_cell_length_a                       17.2018
_cell_length_b                        7.6375
_cell_length_c                       10.2807
_cell_angle_alpha                   89.4040
_cell_angle_beta                    90.7870
_cell_angle_gamma                   90.3463

loop_
_atom_site_label
_atom_site_type_symbol
_atom_site_fract_x
_atom_site_fract_y
_atom_site_fract_z
_atom_site_charge
  Ge     Ge        0.052090000000021    0.000000000000000    0.372269999999958  0.0000
  Ge     Ge        0.833389186030697    0.306051882048753    0.703233817533304  0.0000
  Ge     Ge        0.163966246696630    0.300487850408918    0.966055756511924  0.0000
  Si     Si        0.451743243634794    0.019457675629770    0.354594002600050  0.0000
  Si     Si        0.947200240850606    0.013224605348003    0.628097216518001  0.0000
  Si     Si        0.543162070163139    0.021762245572136    0.623369319596172  0.0000
  Si     Si        0.557371563529189    0.010964344945480    0.106854140322354  0.0000
  Si     Si        0.942120992319971    0.013696459782096    0.121197597036496  0.0000
  Si     Si        0.439619552459064    0.024093639292571    0.871327981756264  0.0000
  Si     Si        0.050449669583126    0.013340900435634    0.882600913980176  0.0000
  Si     Si        0.169235490780482    0.291460920246309    0.272271577800010  0.0000
  Si     Si        0.337277767935245    0.727215496180911    0.270102520906178  0.0000
  Si     Si        0.657478794937440    0.728557826978638    0.712877109271525  0.0000
  Si     Si        0.837091001410099    0.716378658864669    0.705292565615457  0.0000
  Si     Si        0.650792497815542    0.324652632384530    0.708609807176763  0.0000
  Si     Si        0.158282638579060    0.700339691198468    0.272424354506916  0.0000
  Si     Si        0.346753438452606    0.326331453159004    0.268093068274184  0.0000
  Si     Si        0.655619401953171    0.323441073026095    0.013921996933630  0.0000
  Si     Si        0.843816586388485    0.705425716045847    0.009672254551389  0.0000
  Si     Si        0.345398565011875    0.337881665532528    0.961330217924329  0.0000
  Si     Si        0.149847760221624    0.705888815580128    0.973245011259200  0.0000
  Si     Si        0.330784475537435    0.732832968820502    0.966518050410094  0.0000
  Si     Si        0.664529979520610    0.721178935732296    0.016489044340689  0.0000
  Si     Si        0.835003362244066    0.303937909412503    0.013388393789892  0.0000
  O3     O3        0.116626760910959    0.172925478975427    0.363378783959247  0.0000
  O2     O2        0.389387662151395    0.861109176938249    0.352743980046712  0.0000
  O3     O3        0.893716347624210    0.183154991817655    0.609937827049052  0.0000
  O2     O2        0.603630703242007    0.861862038195298    0.632557691672880  0.0000
  O2     O2        0.889293237720448    0.846174543780193    0.619286130479768  0.0000
  O2     O2        0.588464373467806    0.206359666764403    0.631927427301918  0.0000
  O3     O3        0.101286951095951    0.804293148410855    0.362522068716244  0.0000
  O2     O2        0.407815380988798    0.204703534016295    0.344446244340457  0.0000
  O3     O3        0.014564840341782    0.004767552632868    0.526040981039758  0.0000
  O2     O2        0.499411466273110    0.011107060246024    0.487174057620155  0.0000
  O3     O3        0.974364922971201    0.013466852435419    0.266284367682250  0.0000
  O2     O2        0.512308736251481    0.999175039702785    0.239889937520379  0.0000
  O2     O2        0.985799930367827    0.017001178547331    0.771488552316629  0.0000
  O2     O2        0.478678666759524    0.005934390761248    0.733212379466579  0.0000
  O2     O2        0.600260648791245    0.198758223976226    0.098131192694230  0.0000
  O2     O2        0.901211683859465    0.826578768569343    0.093356545822239  0.0000
  O2     O2        0.406095721602548    0.219794137538352    0.884496356479269  0.0000
  O2     O2        0.095110795651255    0.827888454951689    0.883819560114627  0.0000
  O2     O2        0.370328875303770    0.881444581229880    0.878517885215730  0.0000
  O3     O3        0.112392585337899    0.167182813261482    0.862907075086545  0.0000
  O2     O2        0.619853957693072    0.854891037882056    0.107148338612807  0.0000
  O2     O2        0.881537602237727    0.172908944833805    0.108015723723122  0.0000
  O2     O2        0.500301319303598    0.981433818225225    0.985553195473122  0.0000
  O2     O2        0.012206869299572    0.047962538804998    0.022452945045934  0.0000
  O2     O2        0.142759749401353    0.493185523311672    0.282453844772182  0.0000
  O2     O2        0.366072835795856    0.529182335321579    0.297840841727214  0.0000
  O3     O3        0.859092074335963    0.520700004337261    0.673217182213125  0.0000
  O2     O2        0.631869910787869    0.529298999805307    0.683125961781663  0.0000
  O2     O2        0.260015282688479    0.278307677162756    0.314535432130434  0.0000
  O2     O2        0.247645688054133    0.744574440900881    0.311363654021902  0.0000
  O3     O3        0.736432147485042    0.280316078357296    0.661944369575009  0.0000
  O2     O2        0.746720559825613    0.754633208619736    0.670990650844868  0.0000
  O3     O3        0.159300643193845    0.227357275372358    0.124969542150994  0.0000
  O2     O2        0.344660600393243    0.776263244008022    0.118013326389993  0.0000
  O3     O3        0.845646512809681    0.250083968257425    0.865215435611921  0.0000
  O2     O2        0.650295271581676    0.770240170326448    0.865426083516216  0.0000
  O2     O2        0.852375120004826    0.752933153397713    0.858081588450000  0.0000
  O2     O2        0.644099716057118    0.281054643294250    0.862022258019537  0.0000
  O2     O2        0.141392896079805    0.762998179898939    0.123683716188433  0.0000
  O2     O2        0.351848693233596    0.291589447124754    0.114510976469474  0.0000
  O2     O2        0.633774567809034    0.524088889455605    0.043486903235202  0.0000
  O2     O2        0.866311964313468    0.502591773747907    0.033799196956245  0.0000
  O2     O2        0.366485700321397    0.542355861175166    0.936079906529287  0.0000
  O3     O3        0.124968987273822    0.507755607773325    0.953314214093576  0.0000
  O2     O2        0.744987279325162    0.290738497261685    0.052971827611395  0.0000
  O2     O2        0.755481732025976    0.736605124304968    0.052660931927487  0.0000
  O3     O3        0.258602778230143    0.300600491961859    0.913629139664282  0.0000
  O2     O2        0.239487462708018    0.730837242492574    0.932156895320417  0.0000
