data_c00015.vasp
_audit_creation_method             Generated by GULP
_audit_author_name                 Salvador R. G. Balestra
_symmetry_space_group_name_H-M     'P 1             '
_symmetry_Int_Tables_number        1

loop_
_symmetry_equiv_pos_site_id
_symmetry_equiv_pos_as_xyz
_cell_length_a                       17.4187
_cell_length_b                        7.6560
_cell_length_c                        9.9779
_cell_angle_alpha                   89.9995
_cell_angle_beta                    89.7678
_cell_angle_gamma                   89.9980

loop_
_atom_site_label
_atom_site_type_symbol
_atom_site_fract_x
_atom_site_fract_y
_atom_site_fract_z
_atom_site_charge
  Ge     Ge        0.052090000000021    0.000000000000000    0.372269999999958  0.0000
  Ge     Ge        0.551151369735099    0.000041878101443    0.645951001181003  0.0000
  Ge     Ge        0.938790752685061    0.999946094860505    0.112422345454495  0.0000
  Si     Si        0.446341244342153    0.000002371507872    0.387793092096546  0.0000
  Si     Si        0.947783661427806    0.999941786844430    0.629809785213661  0.0000
  Si     Si        0.548866867159125    0.000042164235290    0.139701773903770  0.0000
  Si     Si        0.438476225467621    0.999967982072329    0.900741149673564  0.0000
  Si     Si        0.053132850286244    0.000003278935679    0.870560430933035  0.0000
  Si     Si        0.163278893849298    0.297851257964881    0.298051812719103  0.0000
  Si     Si        0.340022067587591    0.699754011747489    0.285536651748640  0.0000
  Si     Si        0.840302806952885    0.297760560994953    0.736068874357058  0.0000
  Si     Si        0.663750329478724    0.702195343491872    0.716915789061748  0.0000
  Si     Si        0.840367237726965    0.702066523285412    0.736077457615825  0.0000
  Si     Si        0.663687198627915    0.297973432478134    0.716903269262340  0.0000
  Si     Si        0.163260712265195    0.702097549967676    0.298049187655735  0.0000
  Si     Si        0.340043163348573    0.300284241478831    0.285547714393033  0.0000
  Si     Si        0.652060270397473    0.299134325403446    0.028314565153748  0.0000
  Si     Si        0.828875297537422    0.699370338454123    0.048359239599248  0.0000
  Si     Si        0.333373834982581    0.301881283644113    0.971026508551185  0.0000
  Si     Si        0.156251932650333    0.701663631381020    0.986090477665274  0.0000
  Si     Si        0.333343683448142    0.698128958332029    0.971010117196116  0.0000
  Si     Si        0.156277982267640    0.298274350428136    0.986095793915647  0.0000
  Si     Si        0.652138996418088    0.701035888054176    0.028326302391508  0.0000
  Si     Si        0.828792086493879    0.300403038546253    0.048352808742111  0.0000
  O3     O3        0.110309045269873    0.181873553762707    0.391360146701464  0.0000
  O2     O2        0.395985764844992    0.826753042542379    0.365218873237127  0.0000
  O2     O2        0.897859308205349    0.173949207850025    0.655144521203747  0.0000
  O3     O3        0.610301429031344    0.820084511057081    0.626217815119798  0.0000
  O2     O2        0.897955972375132    0.825795388178508    0.655149029735141  0.0000
  O3     O3        0.610197355108054    0.180165819816084    0.626220577845413  0.0000
  O3     O3        0.110273200902655    0.818056815392771    0.391343958187651  0.0000
  O2     O2        0.396012039602899    0.173309960370571    0.365254454380681  0.0000
  O3     O3        0.973816692274293    0.999992492312777    0.476907729307536  0.0000
  O3     O3        0.475250385158262    0.999955415700263    0.537989030239901  0.0000
  O1     O1        0.015050721335865    0.000084283062566    0.214524153616833  0.0000
  O2     O2        0.522252242441770    0.000002023994869    0.294093481955470  0.0000
  O2     O2        0.027034173239364    0.000020708849540    0.714869008807243  0.0000
  O3     O3        0.508497302567215    0.999930542563777    0.801331047682051  0.0000
  O2     O2        0.597946406551778    0.174788896694496    0.115174516799668  0.0000
  O3     O3        0.880243616936498    0.820042161099337    0.139345740208829  0.0000
  O2     O2        0.384910097636797    0.171426795101478    0.882796896838862  0.0000
  O2     O2        0.102272047847601    0.825551325641315    0.898825721606021  0.0000
  O2     O2        0.384861071172010    0.828604122369517    0.882772204369080  0.0000
  O2     O2        0.102332018376873    0.174361055678983    0.898799641983031  0.0000
  O2     O2        0.598097803369718    0.825505568864242    0.115218908529822  0.0000
  O3     O3        0.880096375326136    0.179607057196511    0.139353956978387  0.0000
  O2     O2        0.472948012073343    0.999876656242937    0.050319112881505  0.0000
  O3     O3        0.974765783145889    0.000083810890162    0.951518536659761  0.0000
  O2     O2        0.144285512612861    0.499972178679477    0.324352004752666  0.0000
  O2     O2        0.361332827825311    0.500023933272671    0.321747437114569  0.0000
  O2     O2        0.862504641400045    0.499895728381074    0.709094784530479  0.0000
  O2     O2        0.644796774109051    0.500100720557056    0.689769727586844  0.0000
  O2     O2        0.252613263984958    0.260251077716394    0.328484346819555  0.0000
  O2     O2        0.252589500619201    0.739748210009932    0.328491702760345  0.0000
  O2     O2        0.753506722221310    0.262265576015426    0.686882313120409  0.0000
  O2     O2        0.753581198311076    0.737730543209270    0.686905262632536  0.0000
  O2     O2        0.145846465169765    0.250492577839562    0.142387163444129  0.0000
  O2     O2        0.349330133368829    0.730922494431292    0.127310066423835  0.0000
  O2     O2        0.846320207644200    0.253660522823733    0.893062337261723  0.0000
  O2     O2        0.645336696200248    0.750757479367269    0.872002337082518  0.0000
  O2     O2        0.846417040176735    0.746126495127124    0.893073589137115  0.0000
  O2     O2        0.645256474002936    0.249433922884075    0.871988056950236  0.0000
  O2     O2        0.145824458211386    0.749444379910054    0.142382676659376  0.0000
  O2     O2        0.349375480922279    0.269099713254195    0.127325305101796  0.0000
  O2     O2        0.626772528088075    0.500110437876556    0.050986661312358  0.0000
  O2     O2        0.851211225333015    0.499862625086025    0.078097804090669  0.0000
  O2     O2        0.355420939038625    0.500009134687607    0.931226748378409  0.0000
  O2     O2        0.132606541809609    0.499963197326748    0.961322412938372  0.0000
  O2     O2        0.738814647233622    0.270939909063786    0.077817991111634  0.0000
  O2     O2        0.738907360305201    0.729034873418643    0.077814329496064  0.0000
  O2     O2        0.243982321285745    0.267685049636665    0.940544527754699  0.0000
  O2     O2        0.243949189422185    0.732287764803498    0.940513861351395  0.0000
