data_c00095.vasp
_audit_creation_method             Generated by GULP
_audit_author_name                 Salvador R. G. Balestra
_symmetry_space_group_name_H-M     'P 1             '
_symmetry_Int_Tables_number        1

loop_
_symmetry_equiv_pos_site_id
_symmetry_equiv_pos_as_xyz
_cell_length_a                       17.1906
_cell_length_b                        7.6032
_cell_length_c                       10.2950
_cell_angle_alpha                   89.1939
_cell_angle_beta                    90.1452
_cell_angle_gamma                   90.4997

loop_
_atom_site_label
_atom_site_type_symbol
_atom_site_fract_x
_atom_site_fract_y
_atom_site_fract_z
_atom_site_charge
  Ge     Ge        0.052090000000021    0.000000000000000    0.372269999999958  0.0000
  Ge     Ge        0.848207490726724    0.320392623937053    0.701751875889458  0.0000
  Ge     Ge        0.649856983777911    0.663969431589206    0.020721112190451  0.0000
  Si     Si        0.454509580607431    0.999436637742718    0.354086505633895  0.0000
  Si     Si        0.952722105969913    0.013093829708380    0.634384300594967  0.0000
  Si     Si        0.549172241333987    0.998388465953538    0.618211762706523  0.0000
  Si     Si        0.556264557844741    0.980037069866544    0.105274396410216  0.0000
  Si     Si        0.941899585536701    0.996862288558753    0.124197905175577  0.0000
  Si     Si        0.442720666530942    0.999650734185969    0.865804723724857  0.0000
  Si     Si        0.055703058218222    0.999860060631212    0.889416354607937  0.0000
  Si     Si        0.160404204226322    0.307381240085388    0.276292142795482  0.0000
  Si     Si        0.350264271246755    0.692477300976710    0.264204875602594  0.0000
  Si     Si        0.652649245765140    0.693345180364658    0.712640923546039  0.0000
  Si     Si        0.831457891728124    0.729726425279223    0.716596109258884  0.0000
  Si     Si        0.666290154688877    0.288193817259005    0.700879445050475  0.0000
  Si     Si        0.171395525018587    0.715173348345296    0.270008816058933  0.0000
  Si     Si        0.339757991648326    0.287203255002753    0.269200579738059  0.0000
  Si     Si        0.669698731171693    0.262441839409056    0.005767610567740  0.0000
  Si     Si        0.831800346777562    0.704618568032533    0.021652846963066  0.0000
  Si     Si        0.335343390471537    0.287366101447210    0.966393690850199  0.0000
  Si     Si        0.166475030509402    0.710420472895356    0.968645789340264  0.0000
  Si     Si        0.346064160384603    0.687029745509871    0.961438896120292  0.0000
  Si     Si        0.155411425925560    0.308802446424248    0.975284498053394  0.0000
  Si     Si        0.848854451337476    0.307132319659323    0.010240511921651  0.0000
  O3     O3        0.101515426969441    0.198657805012853    0.364546916026805  0.0000
  O2     O2        0.410187062833553    0.812148627561838    0.343833833171268  0.0000
  O3     O3        0.915907486018923    0.204938882677781    0.614733481539295  0.0000
  O2     O2        0.594686275002396    0.814454279066221    0.628266222646406  0.0000
  O2     O2        0.878548981392405    0.880504664756030    0.639486886892819  0.0000
  O2     O2        0.610008277708471    0.160582800249223    0.620307203082562  0.0000
  O3     O3        0.119943361526431    0.836573577486309    0.356951722999505  0.0000
  O2     O2        0.391986555240288    0.156275722594120    0.354712407455141  0.0000
  O3     O3        0.013013582586189    0.970066295775547    0.524191690209194  0.0000
  O2     O2        0.503367425646390    0.003092597102144    0.484368206610557  0.0000
  O3     O3        0.974385283195148    0.987956878038031    0.268265955405132  0.0000
  O2     O2        0.514005729378009    0.031055621519877    0.236674542017738  0.0000
  O2     O2        0.997559162291824    0.993825899588839    0.770682649579862  0.0000
  O2     O2        0.485977172454356    0.019093671062068    0.730498365628040  0.0000
  O2     O2        0.633509892229948    0.100241950976362    0.086566218391348  0.0000
  O2     O2        0.879063769327002    0.841032048579903    0.108665289956465  0.0000
  O2     O2        0.378759903699638    0.152424319846487    0.874647222227066  0.0000
  O2     O2        0.118349068968854    0.843477792980407    0.877775364347778  0.0000
  O2     O2        0.400899349326096    0.808781224507134    0.871942801982443  0.0000
  O2     O2        0.099223783958661    0.189101476253028    0.888366537282283  0.0000
  O3     O3        0.583727743157055    0.779992785131143    0.110432648332959  0.0000
  O2     O2        0.903218991676239    0.187193430053640    0.101262533200976  0.0000
  O2     O2        0.501848043411526    0.023886910299349    0.983325614012113  0.0000
  O2     O2        0.011637187152613    0.967474899538762    0.024334877985680  0.0000
  O2     O2        0.146776711504125    0.513387016386633    0.296817380044767  0.0000
  O2     O2        0.366389650388075    0.487727289403840    0.295399775289662  0.0000
  O3     O3        0.867004198091869    0.542262409456392    0.684167925134040  0.0000
  O2     O2        0.635135497475813    0.487828936699213    0.686850367988358  0.0000
  O2     O2        0.249877533343353    0.260173314475040    0.309373356126912  0.0000
  O2     O2        0.262543704634408    0.740784648814059    0.303579759401852  0.0000
  O3     O3        0.753958831932948    0.278773910349394    0.650628485861399  0.0000
  O2     O2        0.741530137920244    0.736310988041909    0.671300896658220  0.0000
  O2     O2        0.142797782068053    0.257625031367296    0.126396279941576  0.0000
  O2     O2        0.362917032346039    0.732668335191249    0.111418976679268  0.0000
  O3     O3        0.860984081207011    0.256373697217703    0.862071814066956  0.0000
  O3     O3        0.639387623957048    0.736077482779135    0.862095325821269  0.0000
  O2     O2        0.833541502072257    0.764337601678405    0.870835927868880  0.0000
  O2     O2        0.666038234193103    0.227845850531416    0.851707299508551  0.0000
  O2     O2        0.157791891703144    0.764752377612940    0.118583990890202  0.0000
  O2     O2        0.350019889763185    0.241567277468135    0.117684871240802  0.0000
  O3     O3        0.627067802941616    0.443388480418990    0.036139582437112  0.0000
  O2     O2        0.870750939924715    0.511505010277739    0.034063033169401  0.0000
  O2     O2        0.366429093268463    0.484412866049159    0.934779811666364  0.0000
  O2     O2        0.134518326204617    0.512344029070598    0.948504135187804  0.0000
  O2     O2        0.759112980932171    0.278157162671563    0.049673095803323  0.0000
  O3     O3        0.744219222806612    0.698001706044316    0.071553878248798  0.0000
  O2     O2        0.244040483344401    0.273840423725160    0.935179381065316  0.0000
  O2     O2        0.256387771886321    0.723026787267053    0.927059316277116  0.0000
