data_c00074.vasp
_audit_creation_method             Generated by GULP
_audit_author_name                 Salvador R. G. Balestra
_symmetry_space_group_name_H-M     'P 1             '
_symmetry_Int_Tables_number        1

loop_
_symmetry_equiv_pos_site_id
_symmetry_equiv_pos_as_xyz
_cell_length_a                       17.2758
_cell_length_b                        7.6493
_cell_length_c                       10.2008
_cell_angle_alpha                   90.0146
_cell_angle_beta                    89.7507
_cell_angle_gamma                   90.8053

loop_
_atom_site_label
_atom_site_type_symbol
_atom_site_fract_x
_atom_site_fract_y
_atom_site_fract_z
_atom_site_charge
  Ge     Ge        0.052090000000021    0.000000000000000    0.372269999999958  0.0000
  Ge     Ge        0.341629386463452    0.730278597113358    0.276196073084124  0.0000
  Ge     Ge        0.660316310234009    0.698902299508248    0.700713158443681  0.0000
  Si     Si        0.457048644973968    0.023671637938937    0.354839843410083  0.0000
  Si     Si        0.956303972326803    0.014289634501439    0.641152139618425  0.0000
  Si     Si        0.554182146182046    0.001530845681069    0.611058406468732  0.0000
  Si     Si        0.559663651559026    0.006153599343467    0.098480631688206  0.0000
  Si     Si        0.944363056670491    0.023856327689868    0.126284957226551  0.0000
  Si     Si        0.446898587951827    0.025039067617906    0.857356196159467  0.0000
  Si     Si        0.060611375884482    0.006296899671764    0.893526504033301  0.0000
  Si     Si        0.171514399966832    0.293717652447566    0.269813680696936  0.0000
  Si     Si        0.848061174030537    0.314115228726790    0.713390199397073  0.0000
  Si     Si        0.842088287596320    0.715777901438147    0.703919461394385  0.0000
  Si     Si        0.669250159566993    0.290536805371371    0.712015073359435  0.0000
  Si     Si        0.160810625930113    0.699144921629557    0.276179465814892  0.0000
  Si     Si        0.350180319254812    0.319285375837739    0.268029582811244  0.0000
  Si     Si        0.667173335114894    0.307194532671099    0.019137093470750  0.0000
  Si     Si        0.839551225097028    0.722388316547513    0.012520765390798  0.0000
  Si     Si        0.348784460175614    0.328133599756955    0.961944121574550  0.0000
  Si     Si        0.162710500739008    0.701964357574367    0.968793530908619  0.0000
  Si     Si        0.341247556375974    0.728933352954847    0.963475218527795  0.0000
  Si     Si        0.169787889026441    0.304013520105348    0.964740769050773  0.0000
  Si     Si        0.661589514461466    0.705970237218294    0.014132398263864  0.0000
  Si     Si        0.845640381192703    0.324913257476140    0.019484611389645  0.0000
  O3     O3        0.119778483158515    0.165389120508917    0.354620757016674  0.0000
  O3     O3        0.399665369190230    0.859913833512136    0.372813015521325  0.0000
  O2     O2        0.904370954114021    0.188547327779245    0.632521986931418  0.0000
  O3     O3        0.592861390486644    0.813180519458695    0.613715667955115  0.0000
  O2     O2        0.900385727422050    0.843950388283111    0.625831415156393  0.0000
  O2     O2        0.623084054842566    0.140778614568299    0.635619785514005  0.0000
  O3     O3        0.096068355262947    0.800811754420902    0.354357224031989  0.0000
  O2     O2        0.406210017870885    0.198123654375715    0.351543315371482  0.0000
  O3     O3        0.020682598380984    0.015969941024568    0.531590418643810  0.0000
  O2     O2        0.519120182822496    0.038408082794168    0.469371222884044  0.0000
  O3     O3        0.971839225115672    0.017290763883425    0.274276020948782  0.0000
  O2     O2        0.501954736668661    0.000611205639818    0.218835753393872  0.0000
  O2     O2        0.997612076959633    0.008486747905556    0.781494305709946  0.0000
  O2     O2        0.484448075814892    0.020340736112741    0.714312155033928  0.0000
  O2     O2        0.616175525404148    0.175819726915157    0.107567250556907  0.0000
  O2     O2        0.889507759960427    0.858027458130324    0.095886234702087  0.0000
  O2     O2        0.402282682864609    0.207928492402386    0.871725214132674  0.0000
  O2     O2        0.107161758040639    0.825046922137656    0.885112413331532  0.0000
  O2     O2        0.388225243114279    0.860584162864045    0.869273125294838  0.0000
  O2     O2        0.120053821293952    0.170130123948119    0.876646609313478  0.0000
  O2     O2        0.608876263984617    0.829008181984808    0.103862425035943  0.0000
  O2     O2        0.899114443744998    0.204566018489251    0.107589376964875  0.0000
  O2     O2        0.513782097184395    0.012185878855086    0.963417719546697  0.0000
  O2     O2        0.020085374168066    0.020240159485800    0.034881748470930  0.0000
  O2     O2        0.147973431169872    0.492671691927581    0.298509825853766  0.0000
  O3     O3        0.369042371765142    0.517484888894339    0.300948347192507  0.0000
  O2     O2        0.868263417663064    0.515747576327076    0.680331291791070  0.0000
  O3     O3        0.639761860459375    0.480128038110233    0.675030593075569  0.0000
  O2     O2        0.261601571945206    0.270327861819295    0.305403608892084  0.0000
  O3     O3        0.246264244806985    0.755326166661863    0.321562043883483  0.0000
  O2     O2        0.759573402632094    0.273731533997699    0.673523642872787  0.0000
  O3     O3        0.755302672737411    0.740053741379822    0.654637341137471  0.0000
  O2     O2        0.159222279569145    0.250644574617747    0.116354680596245  0.0000
  O3     O3        0.353559403584866    0.784458277647066    0.112777653973057  0.0000
  O2     O2        0.858309297865175    0.276624157262444    0.867661992911865  0.0000
  O3     O3        0.649702927789635    0.753350599223232    0.863473874391919  0.0000
  O2     O2        0.846190720662251    0.761991022301616    0.858309570558127  0.0000
  O2     O2        0.658376611416543    0.257595583826025    0.867044265760758  0.0000
  O2     O2        0.153785065728587    0.745521471693449    0.122020474014052  0.0000
  O2     O2        0.362706424190588    0.280985668730195    0.113473452219973  0.0000
  O2     O2        0.637729857878187    0.504135620630994    0.041587045992986  0.0000
  O2     O2        0.869268713114234    0.527283130183750    0.043624757060840  0.0000
  O2     O2        0.370968776327991    0.531496380217662    0.938913174714021  0.0000
  O2     O2        0.139723773307482    0.500268401897891    0.940208976966140  0.0000
  O2     O2        0.756539229551949    0.292205268958171    0.060680160066255  0.0000
  O2     O2        0.750495586333588    0.738373541884306    0.055355401160754  0.0000
  O2     O2        0.259581670556530    0.292347943164425    0.923976024145792  0.0000
  O2     O2        0.251027939639268    0.738380702243804    0.925819488307617  0.0000
