data_c00019.vasp
_audit_creation_method             Generated by GULP
_audit_author_name                 Salvador R. G. Balestra
_symmetry_space_group_name_H-M     'P 1             '
_symmetry_Int_Tables_number        1

loop_
_symmetry_equiv_pos_site_id
_symmetry_equiv_pos_as_xyz
_cell_length_a                       17.3481
_cell_length_b                        7.6451
_cell_length_c                       10.0999
_cell_angle_alpha                   89.9323
_cell_angle_beta                    90.1434
_cell_angle_gamma                   89.8090

loop_
_atom_site_label
_atom_site_type_symbol
_atom_site_fract_x
_atom_site_fract_y
_atom_site_fract_z
_atom_site_charge
  Ge     Ge        0.052090000000021    0.000000000000000    0.372269999999958  0.0000
  Ge     Ge        0.550662027467262    0.000327763317614    0.647101041976423  0.0000
  Ge     Ge        0.841508296798650    0.675184753558300    0.050756217498572  0.0000
  Si     Si        0.448955906971323    0.998794281979532    0.384703643247408  0.0000
  Si     Si        0.948174255292652    0.990062139417469    0.631587594589913  0.0000
  Si     Si        0.551952941841505    0.994261869807096    0.139027500949791  0.0000
  Si     Si        0.943339682164727    0.984653088383734    0.118547365691323  0.0000
  Si     Si        0.439669595816690    0.991670859865094    0.902046922138264  0.0000
  Si     Si        0.053238809915934    0.990936428223360    0.877252003757269  0.0000
  Si     Si        0.166581510828270    0.290477641158333    0.296817753006544  0.0000
  Si     Si        0.339010175632799    0.702527967211286    0.282633700048635  0.0000
  Si     Si        0.836835350447511    0.286370849541423    0.729410785497635  0.0000
  Si     Si        0.667690650276382    0.707346845666015    0.725550651332238  0.0000
  Si     Si        0.844963720649219    0.687771046253249    0.732910907123751  0.0000
  Si     Si        0.659615983906491    0.302567579123119    0.719424443236046  0.0000
  Si     Si        0.161567991513243    0.695926290400989    0.291808323462240  0.0000
  Si     Si        0.343880245753954    0.302112527532351    0.286176724936344  0.0000
  Si     Si        0.652076337882939    0.296504789263922    0.026562475433793  0.0000
  Si     Si        0.336753663092655    0.297978122842278    0.975741068703793  0.0000
  Si     Si        0.154919354549473    0.689124220022879    0.984383728003947  0.0000
  Si     Si        0.332644139137641    0.694126909186676    0.972013570912275  0.0000
  Si     Si        0.158839121597182    0.285896783604268    0.989350244220378  0.0000
  Si     Si        0.660301002227436    0.699188470034282    0.034575401656753  0.0000
  Si     Si        0.830047505623752    0.273726283805036    0.041223913462741  0.0000
  O3     O3        0.115504901643481    0.172595461990245    0.390832242146746  0.0000
  O2     O2        0.393896191911249    0.833419918670436    0.360309661819421  0.0000
  O2     O2        0.891355999692466    0.154581285044928    0.650875762685834  0.0000
  O3     O3        0.615743405327179    0.829486635572206    0.635418281872437  0.0000
  O2     O2        0.902872147826461    0.808621768529229    0.650364587269754  0.0000
  O3     O3        0.602811411460210    0.191491314798421    0.629855237634526  0.0000
  O3     O3        0.105696058044229    0.809525963638115    0.380885832181772  0.0000
  O2     O2        0.402048213289774    0.179304448104840    0.366338110320918  0.0000
  O3     O3        0.978744337650714    0.997618221309362    0.484047531298133  0.0000
  O3     O3        0.478038833762783    0.988632357255340    0.533255179475298  0.0000
  O3     O3        0.008107729032448    0.030202370459859    0.221503804422133  0.0000
  O2     O2        0.524114085851947    0.994420064293441    0.290769822949088  0.0000
  O2     O2        0.022947774947260    0.000470252027566    0.727073802463254  0.0000
  O3     O3        0.506804992265280    0.986841939810448    0.798650164122647  0.0000
  O2     O2        0.596576246996664    0.175133768780920    0.112481580873954  0.0000
  O3     O3        0.905194402364251    0.796696902458856    0.143153842389458  0.0000
  O2     O2        0.389067928095049    0.169202363509620    0.888646063554482  0.0000
  O2     O2        0.100241621714116    0.810036152195828    0.895176101388127  0.0000
  O2     O2        0.382436104571401    0.826363095010812    0.884037716651883  0.0000
  O2     O2        0.107139145435709    0.158617034064387    0.901398911167986  0.0000
  O2     O2        0.606276255782540    0.826147647995367    0.119339030939545  0.0000
  O2     O2        0.872215794031930    0.121808080052226    0.122534611788516  0.0000
  O2     O2        0.476784170108164    0.981367056013795    0.047955112325655  0.0000
  O2     O2        0.979895456044687    0.993467595586883    0.972090941991386  0.0000
  O2     O2        0.144822683832848    0.492723619348537    0.318224898540421  0.0000
  O2     O2        0.363031214341865    0.503903769957064    0.319162682168066  0.0000
  O2     O2        0.863417169456258    0.484789673623545    0.700026722408298  0.0000
  O2     O2        0.643112408177538    0.507357150574528    0.700032600655320  0.0000
  O2     O2        0.256638335840565    0.259694458709983    0.329294928717392  0.0000
  O2     O2        0.250694721977306    0.738261108841020    0.324568434324149  0.0000
  O2     O2        0.748482675458498    0.259733821006490    0.683495029300679  0.0000
  O2     O2        0.757414728056079    0.732212359169066    0.689614003776943  0.0000
  O2     O2        0.150331479757250    0.236909258584211    0.143805378628736  0.0000
  O2     O2        0.347012952257441    0.732747601683306    0.126222328715267  0.0000
  O2     O2        0.843228859413935    0.248804051311502    0.884904759051588  0.0000
  O2     O2        0.656552224831289    0.755466563911865    0.880460207498953  0.0000
  O3     O3        0.855936696666883    0.725307309008888    0.886578264509493  0.0000
  O2     O2        0.643232137706658    0.247243702346825    0.872092795922484  0.0000
  O2     O2        0.144084411271041    0.742875031560223    0.137745732720304  0.0000
  O2     O2        0.353382958092383    0.266038651364393    0.130435887087033  0.0000
  O2     O2        0.630413603668582    0.499491753376774    0.050173986313915  0.0000
  O3     O3        0.862608508349005    0.459612552941748    0.084540575963916  0.0000
  O2     O2        0.358062260685533    0.496534781809578    0.936428683846090  0.0000
  O2     O2        0.131986365625710    0.486185475716916    0.964412015183377  0.0000
  O2     O2        0.739431800980399    0.263362312374090    0.073635725959626  0.0000
  O3     O3        0.746289702427445    0.715114172630142    0.088739811495898  0.0000
  O2     O2        0.247219782993719    0.261973929031422    0.944839864085443  0.0000
  O2     O2        0.242592680365074    0.720096236533367    0.939109582499637  0.0000
