data_c00049.vasp
_audit_creation_method             Generated by GULP
_audit_author_name                 Salvador R. G. Balestra
_symmetry_space_group_name_H-M     'P 1             '
_symmetry_Int_Tables_number        1

loop_
_symmetry_equiv_pos_site_id
_symmetry_equiv_pos_as_xyz
_cell_length_a                       16.9909
_cell_length_b                        7.5914
_cell_length_c                       10.4209
_cell_angle_alpha                   90.4363
_cell_angle_beta                    90.6479
_cell_angle_gamma                   89.3557

loop_
_atom_site_label
_atom_site_type_symbol
_atom_site_fract_x
_atom_site_fract_y
_atom_site_fract_z
_atom_site_charge
  Ge     Ge        0.052090000000021    0.000000000000000    0.372269999999958  0.0000
  Ge     Ge        0.441343979130187    0.965382139575073    0.867908698480877  0.0000
  Ge     Ge        0.170682101873083    0.708133674847336    0.973144509193077  0.0000
  Si     Si        0.455054314659683    0.972634098320606    0.353818296801061  0.0000
  Si     Si        0.947996565591850    0.988144994376146    0.631148130391743  0.0000
  Si     Si        0.546532168053407    0.980376336831147    0.618389527621481  0.0000
  Si     Si        0.558132006393180    0.990681892598720    0.105625696844836  0.0000
  Si     Si        0.946424145168036    0.983128559994663    0.116123540014555  0.0000
  Si     Si        0.055257510776694    0.990599141355204    0.881653412887277  0.0000
  Si     Si        0.154178343614205    0.307492814169239    0.279299073131155  0.0000
  Si     Si        0.354513878473808    0.660162449697032    0.268458952547459  0.0000
  Si     Si        0.843439495636870    0.295179117026587    0.709833721862930  0.0000
  Si     Si        0.651802354829951    0.674970329882680    0.715291197442580  0.0000
  Si     Si        0.833384965636909    0.699685500595246    0.713117034120383  0.0000
  Si     Si        0.662482492664064    0.269364825599330    0.715716149610960  0.0000
  Si     Si        0.175155798044176    0.715635686293420    0.275599872764564  0.0000
  Si     Si        0.335435479648183    0.257548494933410    0.273672401776778  0.0000
  Si     Si        0.669008767493106    0.271905277443597    0.015162534996211  0.0000
  Si     Si        0.835081385411890    0.698575205978045    0.012610645803452  0.0000
  Si     Si        0.326792814991440    0.247943182364373    0.975946677957663  0.0000
  Si     Si        0.353959040240819    0.641177999631154    0.967379133019203  0.0000
  Si     Si        0.143835881342278    0.306876252589746    0.984932820519372  0.0000
  Si     Si        0.652929407467752    0.671969491946331    0.013570243075760  0.0000
  Si     Si        0.850626134445827    0.298639355651459    0.009468541406542  0.0000
  O3     O3        0.095388824558208    0.205177793238547    0.368927971392614  0.0000
  O2     O2        0.417530549961864    0.778225642295589    0.345452822500310  0.0000
  O2     O2        0.900441900978699    0.174116524059926    0.623731531263257  0.0000
  O2     O2        0.591522794321627    0.793281607193522    0.633843029015977  0.0000
  O2     O2        0.884557308138551    0.830407507895840    0.628843343684290  0.0000
  O2     O2        0.608555938887487    0.138400547362135    0.633911843547489  0.0000
  O3     O3        0.125844421791452    0.842624604735346    0.366145688785493  0.0000
  O2     O2        0.385570288834798    0.119801102259397    0.358592775013280  0.0000
  O3     O3        0.006985798981501    0.970642889879390    0.516607708405986  0.0000
  O2     O2        0.509210383573070    0.988258847386865    0.478122771271309  0.0000
  O3     O3        0.979657178987186    0.973872110756860    0.257924867212369  0.0000
  O2     O2        0.510134917744665    0.009661833371240    0.234380929682229  0.0000
  O2     O2        0.997344619318926    0.978142316453818    0.762357475859338  0.0000
  O3     O3        0.476361433370020    0.999040240469066    0.717471590741708  0.0000
  O2     O2        0.627440483537780    0.134794803223986    0.107092658186334  0.0000
  O2     O2        0.878265421260572    0.838175781228141    0.102790693657560  0.0000
  O3     O3        0.357363413701590    0.094912674779798    0.885644677253417  0.0000
  O3     O3        0.126797127458995    0.854352300132509    0.868870718539647  0.0000
  O3     O3        0.416945706134553    0.747132884410701    0.887819429955595  0.0000
  O2     O2        0.087922159885447    0.188951701468345    0.894633245501018  0.0000
  O2     O2        0.595192311257097    0.793390218759616    0.097503576314484  0.0000
  O2     O2        0.910825669300484    0.178474877498874    0.090038498889401  0.0000
  O3     O3        0.505826305948657    0.037676414034064    0.983178662662632  0.0000
  O2     O2        0.012857901650542    0.933508148135569    0.013056179205622  0.0000
  O2     O2        0.142876585826031    0.517095687758134    0.289742883293094  0.0000
  O2     O2        0.369599399015057    0.453639146114794    0.296602771561723  0.0000
  O2     O2        0.859453036663621    0.499415422124624    0.680098514113881  0.0000
  O2     O2        0.635372303204520    0.469852568192821    0.687220865400149  0.0000
  O2     O2        0.244280635805693    0.253371420285162    0.314870713505292  0.0000
  O2     O2        0.267481799975488    0.715719074244874    0.314509793337880  0.0000
  O2     O2        0.753396590608721    0.246266031251371    0.676147510989302  0.0000
  O2     O2        0.740987164291353    0.723805662550014    0.679668865819784  0.0000
  O2     O2        0.133000627936236    0.247683214741464    0.133057295554711  0.0000
  O2     O2        0.362362525755373    0.697404509662926    0.117375215133893  0.0000
  O2     O2        0.861490688165329    0.256418743197528    0.859117423654467  0.0000
  O2     O2        0.635657105281440    0.717454392842346    0.864708367490096  0.0000
  O2     O2        0.847034822028443    0.743100387758014    0.863208104437857  0.0000
  O2     O2        0.653975949281109    0.224293065406963    0.865695739529876  0.0000
  O3     O3        0.166420308317335    0.780707891803232    0.130232867516450  0.0000
  O2     O2        0.341557766935229    0.198761074417563    0.125191716853811  0.0000
  O2     O2        0.635244677891345    0.468392455365975    0.042442066149348  0.0000
  O2     O2        0.869307430254386    0.502722884962778    0.040043421485276  0.0000
  O2     O2        0.370341542869101    0.432642240845587    0.948758490554117  0.0000
  O3     O3        0.122589860283522    0.508387634881712    0.963794161446407  0.0000
  O2     O2        0.761347119096358    0.260085182533668    0.048292299529077  0.0000
  O2     O2        0.743394200148646    0.710853371200816    0.047077023096580  0.0000
  O2     O2        0.234612407948969    0.276798218468820    0.947909157564140  0.0000
  O3     O3        0.266225084610670    0.689619107842605    0.922049253394037  0.0000
