data_c00042.vasp
_audit_creation_method             Generated by GULP
_audit_author_name                 Salvador R. G. Balestra
_symmetry_space_group_name_H-M     'P 1             '
_symmetry_Int_Tables_number        1

loop_
_symmetry_equiv_pos_site_id
_symmetry_equiv_pos_as_xyz
_cell_length_a                       17.0300
_cell_length_b                        7.5652
_cell_length_c                       10.4407
_cell_angle_alpha                   91.0532
_cell_angle_beta                    90.4748
_cell_angle_gamma                   89.1907

loop_
_atom_site_label
_atom_site_type_symbol
_atom_site_fract_x
_atom_site_fract_y
_atom_site_fract_z
_atom_site_charge
  Ge     Ge        0.052090000000021    0.000000000000000    0.372269999999958  0.0000
  Ge     Ge        0.444843736839094    0.948423843020129    0.867351032173678  0.0000
  Ge     Ge        0.154822583213574    0.313623421525682    0.286540014651224  0.0000
  Si     Si        0.460444723676706    0.968419314734853    0.354273189685267  0.0000
  Si     Si        0.955258516123371    0.963720899083590    0.632961189620721  0.0000
  Si     Si        0.552678816611179    0.961145467521293    0.618035344319135  0.0000
  Si     Si        0.561302427109482    0.976702484721489    0.105570113698167  0.0000
  Si     Si        0.947087140931392    0.973500421558726    0.117482084057680  0.0000
  Si     Si        0.059691706236231    0.971714749510526    0.885279879351152  0.0000
  Si     Si        0.359160686193184    0.658676139727271    0.260573966352688  0.0000
  Si     Si        0.850667623466589    0.275046539514412    0.712181898044284  0.0000
  Si     Si        0.656852741487949    0.654722721187169    0.711541282405607  0.0000
  Si     Si        0.837776412260059    0.681486868128861    0.713703242176461  0.0000
  Si     Si        0.669983948300300    0.247427906390669    0.712624623049132  0.0000
  Si     Si        0.179208595101421    0.721999575335807    0.267773183764883  0.0000
  Si     Si        0.339716573199539    0.254112971030970    0.275699732305525  0.0000
  Si     Si        0.672661909075546    0.255436163509894    0.011107010961031  0.0000
  Si     Si        0.836536930501852    0.688144602317156    0.012344166372913  0.0000
  Si     Si        0.329740373062344    0.230945538867185    0.977979638378197  0.0000
  Si     Si        0.174880343891665    0.688080713088335    0.968243658583188  0.0000
  Si     Si        0.355223037570419    0.628422372046195    0.963495328414537  0.0000
  Si     Si        0.147986975497201    0.292146053023418    0.983505102709836  0.0000
  Si     Si        0.655064432596802    0.656072507315232    0.009457002288678  0.0000
  Si     Si        0.853842237472934    0.287689241273544    0.010908780362571  0.0000
  O1     O1        0.086959364524798    0.210287404643077    0.377519193002247  0.0000
  O2     O2        0.420354128379167    0.777209173458147    0.340454362987619  0.0000
  O2     O2        0.910120123086380    0.153993697665127    0.628738991605531  0.0000
  O2     O2        0.596311870633980    0.770710685444822    0.629239433969824  0.0000
  O2     O2        0.889673722314859    0.811159477504608    0.631123940880772  0.0000
  O2     O2        0.617365965740890    0.114356846034913    0.629927601920998  0.0000
  O3     O3        0.137598192740324    0.879806327979779    0.342833651824965  0.0000
  O2     O2        0.393996574537502    0.122680210103499    0.358696836548944  0.0000
  O3     O3        0.011012702912466    0.939192440238338    0.513891987552451  0.0000
  O2     O2        0.511404798293759    0.974140843385680    0.481862658786562  0.0000
  O3     O3        0.980687459068812    0.960881403895103    0.258116144011431  0.0000
  O2     O2        0.519639604781585    0.001458835718227    0.239844749647028  0.0000
  O2     O2        0.008193814152712    0.948304538184549    0.759362952828714  0.0000
  O3     O3        0.485506398654878    0.984765913407108    0.722044046805561  0.0000
  O2     O2        0.631562452330215    0.117425832160984    0.101331733635681  0.0000
  O2     O2        0.877980961819269    0.831142949534793    0.102612056579493  0.0000
  O3     O3        0.362058120453465    0.081553902365629    0.884799101189892  0.0000
  O2     O2        0.131693134650337    0.830311358725476    0.878562425585224  0.0000
  O3     O3        0.415057631837779    0.731121070228199    0.876707445646370  0.0000
  O2     O2        0.091493227150721    0.171892868896401    0.894038523834968  0.0000
  O2     O2        0.596103610282911    0.776848804221753    0.092657853342234  0.0000
  O2     O2        0.912419413823295    0.171233865139643    0.096129196074710  0.0000
  O3     O3        0.504560182394360    0.020847659752560    0.989215518923999  0.0000
  O2     O2        0.011816624710550    0.925092817909116    0.011662053991170  0.0000
  O3     O3        0.141379021757480    0.537934909666322    0.306054852849784  0.0000
  O2     O2        0.373510933131233    0.452699045460746    0.290148790812744  0.0000
  O2     O2        0.864972351863779    0.480068680188996    0.682558604141616  0.0000
  O2     O2        0.642607642642841    0.447866923265190    0.683378395192987  0.0000
  O3     O3        0.250909687671146    0.254301180744201    0.323274404807307  0.0000
  O2     O2        0.271597904227161    0.714682537108190    0.303025276939771  0.0000
  O2     O2        0.761415513049848    0.223259665311568    0.676402715313106  0.0000
  O2     O2        0.745961621195697    0.704692944476244    0.677512341530961  0.0000
  O3     O3        0.131713428162026    0.250681128339161    0.130164501964875  0.0000
  O2     O2        0.370910630482235    0.694426932747110    0.110086675003456  0.0000
  O2     O2        0.867515094918338    0.239374149669260    0.861696261874028  0.0000
  O2     O2        0.639089381927842    0.699685030457113    0.860451178605581  0.0000
  O2     O2        0.849174337744086    0.730097310026048    0.863362953768692  0.0000
  O2     O2        0.659374274271948    0.204178699101165    0.861916427509341  0.0000
  O2     O2        0.170099590395047    0.751416825952156    0.115662233231715  0.0000
  O2     O2        0.342748184329451    0.187213240645037    0.127792831977939  0.0000
  O2     O2        0.637350931142694    0.452087678705903    0.037070638607969  0.0000
  O2     O2        0.871806477038204    0.493092349273162    0.040384385286767  0.0000
  O2     O2        0.370451654017194    0.418761767797240    0.949380519749891  0.0000
  O2     O2        0.132258809240865    0.498623212110998    0.953108913416559  0.0000
  O2     O2        0.764389319723547    0.248793577340987    0.046242628478546  0.0000
  O2     O2        0.744719785258033    0.697317410076330    0.045199555016174  0.0000
  O2     O2        0.237521260365408    0.246861220309139    0.950406381618225  0.0000
  O2     O2        0.265151760476584    0.673791466322341    0.924628568412964  0.0000
