data_c00018.vasp
_audit_creation_method             Generated by GULP
_audit_author_name                 Salvador R. G. Balestra
_symmetry_space_group_name_H-M     'P 1             '
_symmetry_Int_Tables_number        1

loop_
_symmetry_equiv_pos_site_id
_symmetry_equiv_pos_as_xyz
_cell_length_a                       17.3248
_cell_length_b                        7.6413
_cell_length_c                       10.0732
_cell_angle_alpha                   90.5272
_cell_angle_beta                    89.8732
_cell_angle_gamma                   89.4694

loop_
_atom_site_label
_atom_site_type_symbol
_atom_site_fract_x
_atom_site_fract_y
_atom_site_fract_z
_atom_site_charge
  Ge     Ge        0.052090000000021    0.000000000000000    0.372269999999958  0.0000
  Ge     Ge        0.553852919309921    0.003045091456184    0.648994308706774  0.0000
  Ge     Ge        0.653044526742115    0.323639697321358    0.040217296573603  0.0000
  Si     Si        0.449551535000363    0.995838623337459    0.391059449025198  0.0000
  Si     Si        0.950763756556622    0.988362199370246    0.633757120477237  0.0000
  Si     Si        0.554448044981854    0.017985543280310    0.147307762129088  0.0000
  Si     Si        0.944736556460801    0.004352589119349    0.113086943079849  0.0000
  Si     Si        0.444458067253940    0.992265909480454    0.906272565115081  0.0000
  Si     Si        0.057402646119725    0.997700885867060    0.875219796593542  0.0000
  Si     Si        0.166394427486358    0.291169074759745    0.294816240818582  0.0000
  Si     Si        0.340801745843549    0.699439427553730    0.289798932993828  0.0000
  Si     Si        0.837406186366663    0.286677430283226    0.737524203917333  0.0000
  Si     Si        0.671033238503939    0.713472839372225    0.721424199218378  0.0000
  Si     Si        0.848429557312032    0.685815498004948    0.729651118336002  0.0000
  Si     Si        0.661271605591986    0.306541626736696    0.725966647593467  0.0000
  Si     Si        0.163262852787897    0.696910880205930    0.297209069181468  0.0000
  Si     Si        0.344231600083252    0.298555240013780    0.287838620565112  0.0000
  Si     Si        0.843333180206138    0.696565152278555    0.039993288548639  0.0000
  Si     Si        0.340438884233973    0.299855367849992    0.976802934840402  0.0000
  Si     Si        0.158358254164264    0.695387287325355    0.988544632114046  0.0000
  Si     Si        0.336346277099113    0.696727586981547    0.978211295476147  0.0000
  Si     Si        0.162084421145899    0.291830379916568    0.986410609297832  0.0000
  Si     Si        0.664772154129705    0.731647511610888    0.028831426016857  0.0000
  Si     Si        0.833010462448907    0.302633278469668    0.051510641016891  0.0000
  O3     O3        0.114038653533114    0.175378005815914    0.387246042774333  0.0000
  O2     O2        0.396133999596536    0.827135518980521    0.370279215915335  0.0000
  O2     O2        0.892553967201987    0.147059612832098    0.666767919322963  0.0000
  O3     O3        0.619568855088438    0.832340430327838    0.627950223835556  0.0000
  O2     O2        0.907817451964452    0.803084851357293    0.648215984994155  0.0000
  O3     O3        0.604242831202907    0.196109372481161    0.634989483357978  0.0000
  O3     O3        0.107489485313310    0.811948360016676    0.387785429372760  0.0000
  O2     O2        0.401307640668974    0.173788452154401    0.367901380037112  0.0000
  O3     O3        0.977968245982936    0.007010167243704    0.484157834079769  0.0000
  O3     O3        0.478633283123471    0.994716694325575    0.539812023962216  0.0000
  O3     O3        0.011323007304664    0.009550631712231    0.217879070498146  0.0000
  O2     O2        0.525334855761302    0.988111655533545    0.297244531612512  0.0000
  O2     O2        0.027916093605956    0.995200750637515    0.723883920014843  0.0000
  O3     O3        0.511828553398591    0.981896537554832    0.802470892966139  0.0000
  O3     O3        0.587512097259020    0.211503655112045    0.134110306718537  0.0000
  O2     O2        0.895867549332784    0.825922922389839    0.126285634870343  0.0000
  O2     O2        0.394151823541025    0.170857382525634    0.889632604601395  0.0000
  O2     O2        0.103528984033808    0.817481532163773    0.901134527660931  0.0000
  O2     O2        0.386984990134112    0.827655378298497    0.891661703142770  0.0000
  O2     O2        0.111705067036396    0.165655349686992    0.894468700410842  0.0000
  O2     O2        0.623441228490867    0.881375001574948    0.115534771338858  0.0000
  O2     O2        0.886637778038562    0.169053218681733    0.132004559690018  0.0000
  O2     O2        0.481990190022791    0.986644696411992    0.051993213490950  0.0000
  O2     O2        0.982406570993455    0.014296226286427    0.967203340271893  0.0000
  O2     O2        0.145668056907599    0.493890810956942    0.320053370752533  0.0000
  O2     O2        0.363803483990906    0.499558693863701    0.323786701148178  0.0000
  O2     O2        0.867373514884541    0.481119128074269    0.703008457544053  0.0000
  O2     O2        0.644775280059054    0.512626301569888    0.709414705877874  0.0000
  O2     O2        0.256361669378197    0.256655301797702    0.327473939113670  0.0000
  O2     O2        0.252373785195520    0.736672931664151    0.332044712387199  0.0000
  O2     O2        0.750099222516718    0.263259802657233    0.685346203702288  0.0000
  O2     O2        0.761288230262181    0.728664226573653    0.683308068631645  0.0000
  O2     O2        0.150953239323176    0.241104547771510    0.140221117878360  0.0000
  O2     O2        0.350019269276161    0.732700354392369    0.133575829384299  0.0000
  O2     O2        0.835530220684318    0.258474627835868    0.894869754099398  0.0000
  O2     O2        0.658848161355787    0.780035973793072    0.873293785836303  0.0000
  O2     O2        0.857818951039510    0.730955592770694    0.884744080950311  0.0000
  O3     O3        0.646193586820971    0.253029383693431    0.877778681673469  0.0000
  O2     O2        0.147622441017394    0.746127847755237    0.143113882593122  0.0000
  O2     O2        0.356077434363057    0.264739978988836    0.131515063240178  0.0000
  O3     O3        0.628842918424358    0.543309634510300    0.053282285443092  0.0000
  O2     O2        0.865684096876963    0.497921342424908    0.077262667337332  0.0000
  O2     O2        0.361993935933288    0.498672809556180    0.940636391010114  0.0000
  O2     O2        0.135948663323906    0.492911782361301    0.963771791644609  0.0000
  O3     O3        0.745588800544343    0.290801666972574    0.099306859840327  0.0000
  O2     O2        0.753861246467846    0.729164033001215    0.074077273480605  0.0000
  O2     O2        0.251072279181501    0.265773043838539    0.944132828740474  0.0000
  O2     O2        0.246511130958418    0.725940020920030    0.944213817113229  0.0000
