data_c00005.vasp
_audit_creation_method             Generated by GULP
_audit_author_name                 Salvador R. G. Balestra
_symmetry_space_group_name_H-M     'P 1             '
_symmetry_Int_Tables_number        1

loop_
_symmetry_equiv_pos_site_id
_symmetry_equiv_pos_as_xyz
_cell_length_a                       17.2802
_cell_length_b                        7.6392
_cell_length_c                       10.2189
_cell_angle_alpha                   89.6669
_cell_angle_beta                    89.9394
_cell_angle_gamma                   89.8896

loop_
_atom_site_label
_atom_site_type_symbol
_atom_site_fract_x
_atom_site_fract_y
_atom_site_fract_z
_atom_site_charge
  Ge     Ge        0.052090000000021    0.000000000000000    0.372269999999958  0.0000
  Ge     Ge        0.453319922054322    0.987616762103733    0.350000236330389  0.0000
  Ge     Ge        0.844802350230595    0.306553660712284    0.703692891727699  0.0000
  Si     Si        0.954200652275684    0.003094891938243    0.636047352479949  0.0000
  Si     Si        0.551155619879445    0.997919698782876    0.614382257070105  0.0000
  Si     Si        0.557351475107751    0.994346596918462    0.089213614294839  0.0000
  Si     Si        0.943021554915710    0.996769549370959    0.125969348327534  0.0000
  Si     Si        0.443307283327438    0.988283210082933    0.853940623044796  0.0000
  Si     Si        0.057417507879633    0.998225474810414    0.890327065672455  0.0000
  Si     Si        0.157176164806964    0.306698855729776    0.272373999078667  0.0000
  Si     Si        0.348136198876149    0.680570397479430    0.268473315829865  0.0000
  Si     Si        0.658311582569442    0.696222469899705    0.713073214553793  0.0000
  Si     Si        0.836579357266892    0.717009131427512    0.711362491102065  0.0000
  Si     Si        0.664470867790868    0.293659232029664    0.706974887129759  0.0000
  Si     Si        0.170060946345373    0.710358856752638    0.268932209994994  0.0000
  Si     Si        0.335445956234564    0.275801853146098    0.271327163631466  0.0000
  Si     Si        0.668916179841615    0.289491645169412    0.016035685063498  0.0000
  Si     Si        0.836437978281968    0.704215524144241    0.017633125052718  0.0000
  Si     Si        0.336916080462762    0.279227705377214    0.967121781340201  0.0000
  Si     Si        0.168021776662169    0.705008495236780    0.964387881257907  0.0000
  Si     Si        0.347136977733616    0.681168287227641    0.964395040255091  0.0000
  Si     Si        0.157719588627745    0.305641136239436    0.968045952439596  0.0000
  Si     Si        0.658250246690164    0.684802568844898    0.019376584293426  0.0000
  Si     Si        0.846109840531357    0.303890090538847    0.016552400959318  0.0000
  O3     O3        0.097291992400334    0.200219729797977    0.358451564140472  0.0000
  O3     O3        0.406748698862516    0.787925932123926    0.355957265456705  0.0000
  O3     O3        0.911427382528703    0.187762802320834    0.616356784812671  0.0000
  O2     O2        0.600733782013668    0.821417046652055    0.634250421496003  0.0000
  O2     O2        0.886193304370394    0.857855709779456    0.631105636283171  0.0000
  O2     O2        0.603359759166007    0.168698579871064    0.637379189599983  0.0000
  O3     O3        0.120029218718739    0.837602268034178    0.355117140695482  0.0000
  O3     O3        0.384429941089314    0.151095283084870    0.363422763482971  0.0000
  O3     O3        0.018640574183427    0.973347339614589    0.529121372554962  0.0000
  O3     O3        0.523236603925421    0.001996313246954    0.466695567914913  0.0000
  O3     O3        0.972760333578007    0.984438258016549    0.272357522972896  0.0000
  O3     O3        0.496538950800665    0.019121764591231    0.200955702689572  0.0000
  O2     O2        0.995351137559197    0.991208152731417    0.776808944375112  0.0000
  O2     O2        0.474770205869291    0.998018418950101    0.705966665393774  0.0000
  O2     O2        0.620007203568878    0.149756979656040    0.097183205074129  0.0000
  O2     O2        0.883814377186928    0.837326451482578    0.105720493192831  0.0000
  O2     O2        0.383198120395293    0.146864524430326    0.874976130286268  0.0000
  O2     O2        0.118819140238049    0.839154133815529    0.876073148103911  0.0000
  O2     O2        0.401555256299253    0.801217586105534    0.874213227966227  0.0000
  O2     O2        0.102574938437031    0.183353813596005    0.881633405287853  0.0000
  O2     O2        0.601979001445052    0.808200712782237    0.103483417275154  0.0000
  O2     O2        0.901484661352048    0.183840125047661    0.105140692015967  0.0000
  O2     O2        0.515968507547112    0.007599442993002    0.948884224628847  0.0000
  O2     O2        0.015898537140726    0.977228353045965    0.029831325598683  0.0000
  O2     O2        0.144269383674957    0.511659862291388    0.297986257738228  0.0000
  O2     O2        0.361303761717119    0.475501250113731    0.293689474126041  0.0000
  O3     O3        0.864910490254928    0.524479470708699    0.677340851710019  0.0000
  O2     O2        0.639339134074062    0.494907030199074    0.679543125954498  0.0000
  O2     O2        0.245138359986216    0.253128284895457    0.306731250064709  0.0000
  O2     O2        0.260316778648912    0.733947526951671    0.303673863896084  0.0000
  O3     O3        0.750771920418917    0.263686221387710    0.655338508960366  0.0000
  O2     O2        0.746428017075588    0.738690505840548    0.672005295533038  0.0000
  O2     O2        0.141973222738692    0.262249152373967    0.120032917363456  0.0000
  O2     O2        0.363323282430243    0.728199127008416    0.115532646862901  0.0000
  O3     O3        0.856645692053358    0.252725339693463    0.866710507872542  0.0000
  O2     O2        0.647197588380054    0.730745625045106    0.866818997393991  0.0000
  O2     O2        0.845581711055546    0.754310380986365    0.865768737604605  0.0000
  O2     O2        0.664983866587281    0.254138428523097    0.861690960413504  0.0000
  O2     O2        0.156746423536326    0.754421822539133    0.115980891350487  0.0000
  O2     O2        0.349387503133539    0.226692378438702    0.118690576512085  0.0000
  O2     O2        0.636032214427194    0.483232096346238    0.047651819466623  0.0000
  O2     O2        0.868260047477138    0.507201990583304    0.039606522198840  0.0000
  O2     O2        0.366526150092545    0.477002736172547    0.939808111849107  0.0000
  O2     O2        0.138215461285082    0.508227574243437    0.936953621102312  0.0000
  O2     O2        0.757610846027653    0.273821250361550    0.061373703185511  0.0000
  O2     O2        0.746923239485986    0.717370997197643    0.060123108224062  0.0000
  O2     O2        0.246540257308203    0.265806993881870    0.931768647971215  0.0000
  O2     O2        0.258214630652635    0.719958944305168    0.927053704906630  0.0000
