data_c00022.vasp
_audit_creation_method             Generated by GULP
_audit_author_name                 Salvador R. G. Balestra
_symmetry_space_group_name_H-M     'P 1             '
_symmetry_Int_Tables_number        1

loop_
_symmetry_equiv_pos_site_id
_symmetry_equiv_pos_as_xyz
_cell_length_a                       17.0173
_cell_length_b                        7.5662
_cell_length_c                       10.4482
_cell_angle_alpha                   89.6864
_cell_angle_beta                    90.4549
_cell_angle_gamma                   89.9311

loop_
_atom_site_label
_atom_site_type_symbol
_atom_site_fract_x
_atom_site_fract_y
_atom_site_fract_z
_atom_site_charge
  Ge     Ge        0.052090000000021    0.000000000000000    0.372269999999958  0.0000
  Ge     Ge        0.563508802017093    0.975522302067861    0.123230980934183  0.0000
  Ge     Ge        0.059227818857033    0.998878069776107    0.889246034160800  0.0000
  Si     Si        0.456586822833812    0.978452664102523    0.372955626204714  0.0000
  Si     Si        0.951169268452444    0.995705110870690    0.632843756022745  0.0000
  Si     Si        0.550332178451530    0.980826488072945    0.634524155009183  0.0000
  Si     Si        0.947446616210736    0.988255791992621    0.123183396532893  0.0000
  Si     Si        0.448972979660483    0.988461583791827    0.884440184225098  0.0000
  Si     Si        0.157790432383561    0.307201890644914    0.272977666962892  0.0000
  Si     Si        0.356460442840959    0.669853345246876    0.278310745287181  0.0000
  Si     Si        0.850309672967027    0.306134652201884    0.709995352149126  0.0000
  Si     Si        0.653015094592494    0.671527299374701    0.722061154362928  0.0000
  Si     Si        0.833867479211069    0.710115093956078    0.713752683737796  0.0000
  Si     Si        0.669342261763531    0.263966835892183    0.719355323807706  0.0000
  Si     Si        0.176138800469990    0.717766060280271    0.272270557094943  0.0000
  Si     Si        0.338395047622241    0.264571132352715    0.276167269092661  0.0000
  Si     Si        0.678094927798277    0.254816807766924    0.016011698052436  0.0000
  Si     Si        0.836059642999241    0.705095480240096    0.013134452485996  0.0000
  Si     Si        0.336605787257650    0.269601463709513    0.977262340335072  0.0000
  Si     Si        0.178250390796913    0.720368165692073    0.976924109229828  0.0000
  Si     Si        0.359463080904570    0.667122661291095    0.980568044539888  0.0000
  Si     Si        0.155037856870523    0.318114476879077    0.977829184399285  0.0000
  Si     Si        0.654729768244505    0.655527942165582    0.018629327935431  0.0000
  Si     Si        0.859108518511738    0.307685585319105    0.007977479720398  0.0000
  O3     O3        0.096644984264977    0.204169599172875    0.359234055151713  0.0000
  O2     O2        0.417555785935565    0.784404461502695    0.360883209277305  0.0000
  O2     O2        0.908994296961544    0.188525878270729    0.625434620579563  0.0000
  O2     O2        0.592254338737527    0.789045239601164    0.639520603125104  0.0000
  O2     O2        0.882635045796370    0.846655235388438    0.627629081136170  0.0000
  O2     O2        0.617147881333653    0.132597010874905    0.633989064012960  0.0000
  O3     O3        0.124069214441597    0.840685372809836    0.359372375377747  0.0000
  O2     O2        0.388800535119745    0.126694763365547    0.359263050710418  0.0000
  O3     O3        0.013378168351543    0.977359928195425    0.522573510356710  0.0000
  O2     O2        0.497358464752154    0.996194833670344    0.509557706105126  0.0000
  O3     O3        0.973594125909452    0.978208652096810    0.269137537045774  0.0000
  O3     O3        0.523774423839665    0.006657422621288    0.269996933965055  0.0000
  O3     O3        0.996640529189949    0.966677036254938    0.765580950597051  0.0000
  O2     O2        0.492398634812955    0.009508793508383    0.751737952159255  0.0000
  O3     O3        0.644169146757101    0.113423674372390    0.111185192228577  0.0000
  O2     O2        0.876118016310343    0.851453826846572    0.100935839965925  0.0000
  O2     O2        0.375481035318035    0.124228608323750    0.887022732259908  0.0000
  O3     O3        0.138600473116587    0.855045181552722    0.880788985883685  0.0000
  O2     O2        0.419220893985742    0.786103353785315    0.899330625283873  0.0000
  O3     O3        0.095735142226743    0.212409280478016    0.888985811258737  0.0000
  O3     O3        0.595795845594612    0.760104116933332    0.107045533402135  0.0000
  O2     O2        0.920513462941360    0.188561258291312    0.086785118490292  0.0000
  O3     O3        0.502850821417107    0.044738308202558    0.001945132835755  0.0000
  O3     O3        0.018138616093495    0.936338284297091    0.032569026722670  0.0000
  O2     O2        0.147785482257046    0.516288809542883    0.291236503171296  0.0000
  O2     O2        0.368184493862249    0.462474219816322    0.308040035123824  0.0000
  O2     O2        0.863167062256823    0.512701100916410    0.679364423186707  0.0000
  O2     O2        0.639243758469881    0.464220665940700    0.695872937671292  0.0000
  O2     O2        0.246612724019769    0.247699443801216    0.310652551909053  0.0000
  O2     O2        0.268083627850819    0.729551811672013    0.310975634988432  0.0000
  O2     O2        0.760576402241533    0.251058370703707    0.679416052017782  0.0000
  O2     O2        0.741291467363029    0.725990775992589    0.682468370453154  0.0000
  O2     O2        0.140100457328995    0.256918805387140    0.124925012017115  0.0000
  O2     O2        0.376019756299178    0.708884806724791    0.129847390294287  0.0000
  O2     O2        0.872250814710368    0.268586644764326    0.858120953557084  0.0000
  O2     O2        0.638123091103822    0.712959097717498    0.871159855197372  0.0000
  O2     O2        0.847092649515581    0.752227247655558    0.863592389788043  0.0000
  O2     O2        0.662164145688922    0.205345763394900    0.867362228121164  0.0000
  O2     O2        0.166824799039094    0.779215365904658    0.124644143739703  0.0000
  O2     O2        0.349805587199675    0.221098484395105    0.126640598099622  0.0000
  O2     O2        0.640363218354062    0.447800329775090    0.039671800492120  0.0000
  O2     O2        0.875512637453752    0.513142025331466    0.039501065692480  0.0000
  O2     O2        0.375367061793457    0.461629629213189    0.950475893976234  0.0000
  O2     O2        0.140322095438278    0.526142538571893    0.959652512853305  0.0000
  O2     O2        0.770831454457832    0.260256849056292    0.044829558410659  0.0000
  O2     O2        0.745022858713397    0.702346050488641    0.050852374543677  0.0000
  O2     O2        0.244791936594377    0.272561533586653    0.942740682866896  0.0000
  O2     O2        0.270400863672381    0.714478867456080    0.944861673497712  0.0000
