data_c00014.vasp
_audit_creation_method             Generated by GULP
_audit_author_name                 Salvador R. G. Balestra
_symmetry_space_group_name_H-M     'P 1             '
_symmetry_Int_Tables_number        1

loop_
_symmetry_equiv_pos_site_id
_symmetry_equiv_pos_as_xyz
_cell_length_a                       17.3857
_cell_length_b                        7.6589
_cell_length_c                        9.9990
_cell_angle_alpha                   90.0033
_cell_angle_beta                    90.5979
_cell_angle_gamma                   89.9906

loop_
_atom_site_label
_atom_site_type_symbol
_atom_site_fract_x
_atom_site_fract_y
_atom_site_fract_z
_atom_site_charge
  Ge     Ge        0.052090000000021    0.000000000000000    0.372269999999958  0.0000
  Ge     Ge        0.548985479474407    0.000144594478196    0.659691310868062  0.0000
  Ge     Ge        0.554945168391156    0.000233670489109    0.154693743140901  0.0000
  Si     Si        0.447280653315293    0.999979351483198    0.400168943812295  0.0000
  Si     Si        0.946895148530873    0.999693736286198    0.628042005644279  0.0000
  Si     Si        0.944536837509659    0.999805358310430    0.112030779381865  0.0000
  Si     Si        0.439596740305051    0.999772337782664    0.913003162727680  0.0000
  Si     Si        0.054180644213593    0.999938207134478    0.872586784949025  0.0000
  Si     Si        0.163752045164504    0.297386063845816    0.297949104572351  0.0000
  Si     Si        0.340713792699725    0.699817134649208    0.291070842932577  0.0000
  Si     Si        0.840189257936360    0.299936236953151    0.729343864995748  0.0000
  Si     Si        0.663330273029427    0.703986171850406    0.726579037509270  0.0000
  Si     Si        0.840493297446691    0.699209509439115    0.729331766902821  0.0000
  Si     Si        0.663050244847923    0.296708760679736    0.726567228899724  0.0000
  Si     Si        0.163686054353765    0.702394501280008    0.297921941420443  0.0000
  Si     Si        0.340792631107597    0.300266130104067    0.291126331717848  0.0000
  Si     Si        0.661241325330593    0.297705758550075    0.035527958535757  0.0000
  Si     Si        0.838863354084460    0.697376364266931    0.043620917133042  0.0000
  Si     Si        0.334599878880427    0.302480311784715    0.976758873843454  0.0000
  Si     Si        0.156934760921892    0.701194392897047    0.986735791267725  0.0000
  Si     Si        0.334484766732658    0.697392432472679    0.976677365819891  0.0000
  Si     Si        0.157031213115797    0.298436657287405    0.986776501213478  0.0000
  Si     Si        0.661604413650035    0.703180073505885    0.035509691055549  0.0000
  Si     Si        0.838481532236589    0.301747045117007    0.043678349022783  0.0000
  O3     O3        0.110523502743208    0.181617052668036    0.389899424426153  0.0000
  O2     O2        0.397772162040473    0.826540721686359    0.369953328244797  0.0000
  O2     O2        0.895853160231010    0.172136126502610    0.649803854528791  0.0000
  O3     O3        0.607293028762176    0.819031754840872    0.637005098045712  0.0000
  O2     O2        0.896300919268303    0.826561645900576    0.649690893159591  0.0000
  O3     O3        0.606838233328604    0.181972704845766    0.637096101147896  0.0000
  O3     O3        0.110388831580672    0.818123632480382    0.389817480145120  0.0000
  O2     O2        0.397868911057834    0.173644075684744    0.370098977428257  0.0000
  O3     O3        0.975610903080610    0.000006899088603    0.477931156052315  0.0000
  O3     O3        0.470658963563674    0.999812198225494    0.554672255494419  0.0000
  O3     O3        0.013465375673051    0.000368834999120    0.213865408488766  0.0000
  O3     O3        0.526274193872004    0.000002984739763    0.319360888411806  0.0000
  O2     O2        0.024249179071550    0.000034693232643    0.719718854642463  0.0000
  O3     O3        0.511394435361540    0.999670123782399    0.818261105463724  0.0000
  O3     O3        0.608267856891797    0.186487414223799    0.129941892113415  0.0000
  O2     O2        0.891771303552019    0.827508636027793    0.129737280519306  0.0000
  O2     O2        0.386315036327376    0.171708719621130    0.890655592459904  0.0000
  O2     O2        0.104132432774882    0.825481933304214    0.896193780670683  0.0000
  O2     O2        0.386123054741992    0.828211414970101    0.890524618081007  0.0000
  O2     O2        0.104349770575742    0.174038101269762    0.896140916926035  0.0000
  O3     O3        0.609030518319464    0.815063254390174    0.130161657857484  0.0000
  O2     O2        0.891153856048091    0.171129877708929    0.129786202321625  0.0000
  O3     O3        0.471362332622808    0.999381497589741    0.063588585016434  0.0000
  O2     O2        0.979241679583758    0.000268269055742    0.963468532257089  0.0000
  O2     O2        0.145547734759752    0.499888825618787    0.323702040480066  0.0000
  O2     O2        0.361464147172045    0.500063683520086    0.329052379252949  0.0000
  O2     O2        0.861209541864746    0.499483600542806    0.691979756315190  0.0000
  O2     O2        0.644015583740579    0.500411797274516    0.706901672284763  0.0000
  O2     O2        0.253213548248547    0.258432105079903    0.331023755391448  0.0000
  O2     O2        0.253124526238480    0.741533670956858    0.331043572141321  0.0000
  O2     O2        0.751820013940678    0.260990843567475    0.688623049589242  0.0000
  O2     O2        0.752164194245854    0.738909686377418    0.688755249888883  0.0000
  O2     O2        0.146614961926980    0.249720279174722    0.142313801440555  0.0000
  O2     O2        0.350786344439110    0.728550487076372    0.133290263520551  0.0000
  O2     O2        0.851479089833993    0.269044615061988    0.886870364575780  0.0000
  O2     O2        0.649673290364048    0.761280817998911    0.881020614058476  0.0000
  O2     O2        0.851975124496793    0.730019931040031    0.886834205828328  0.0000
  O2     O2        0.649358407281824    0.239605502768486    0.881026659902716  0.0000
  O2     O2        0.146538471218409    0.749966703218133    0.142275069449774  0.0000
  O2     O2        0.350971727373163    0.271415143864050    0.133366921690195  0.0000
  O2     O2        0.639293389178793    0.500550573021083    0.050866976285254  0.0000
  O2     O2        0.861986423525745    0.499461148506723    0.082123220150262  0.0000
  O2     O2        0.357126671340076    0.499942180960420    0.936765550682346  0.0000
  O2     O2        0.132990399355331    0.499790608258278    0.961597404739388  0.0000
  O2     O2        0.749891716238231    0.267449188350174    0.078742880581014  0.0000
  O2     O2        0.750323279652317    0.732528842623224    0.078537044107504  0.0000
  O2     O2        0.245085252393607    0.268856274592149    0.944383492995483  0.0000
  O2     O2        0.244960718639863    0.730867984167521    0.944232948631723  0.0000
