data_c00091.vasp
_audit_creation_method             Generated by GULP
_audit_author_name                 Salvador R. G. Balestra
_symmetry_space_group_name_H-M     'P 1             '
_symmetry_Int_Tables_number        1

loop_
_symmetry_equiv_pos_site_id
_symmetry_equiv_pos_as_xyz
_cell_length_a                       17.1369
_cell_length_b                        7.6124
_cell_length_c                       10.3356
_cell_angle_alpha                   89.3802
_cell_angle_beta                    90.5138
_cell_angle_gamma                   90.0128

loop_
_atom_site_label
_atom_site_type_symbol
_atom_site_fract_x
_atom_site_fract_y
_atom_site_fract_z
_atom_site_charge
  Ge     Ge        0.052090000000021    0.000000000000000    0.372269999999958  0.0000
  Ge     Ge        0.847572729990736    0.318834309555263    0.719410388955498  0.0000
  Ge     Ge        0.328854901456274    0.278397919688391    0.973581336768478  0.0000
  Si     Si        0.453447093816423    0.987471946705278    0.366946258592770  0.0000
  Si     Si        0.952392577548415    0.013505741077701    0.633626488968908  0.0000
  Si     Si        0.549511021099636    0.994712366540618    0.629533314241353  0.0000
  Si     Si        0.551956025745770    0.992312809901366    0.112413888127819  0.0000
  Si     Si        0.939273009520573    0.992840656431189    0.118097722887676  0.0000
  Si     Si        0.438866188744428    0.993923088287545    0.873229111131180  0.0000
  Si     Si        0.052407451903063    0.005900680886996    0.886376548807787  0.0000
  Si     Si        0.157820540965039    0.311870826304505    0.291281829036354  0.0000
  Si     Si        0.351751116237443    0.681146692004292    0.277497278014798  0.0000
  Si     Si        0.654527111947207    0.691321626765879    0.720262845573705  0.0000
  Si     Si        0.833638706448256    0.727435968656899    0.731469282493462  0.0000
  Si     Si        0.664185964169364    0.287460766869151    0.714652630428676  0.0000
  Si     Si        0.172036028771668    0.716002020829198    0.289398750694165  0.0000
  Si     Si        0.336793579948399    0.275018812247352    0.280834585012576  0.0000
  Si     Si        0.664302043096226    0.279999012601609    0.017974045678032  0.0000
  Si     Si        0.827336656611383    0.706808959016579    0.035177947076926  0.0000
  Si     Si        0.164094260047398    0.718187538898668    0.989726294212261  0.0000
  Si     Si        0.345845471649887    0.682499740318159    0.977645175805611  0.0000
  Si     Si        0.146618819137049    0.318551316295465    0.988972102680621  0.0000
  Si     Si        0.648242057486706    0.678344501545809    0.022034963479079  0.0000
  Si     Si        0.844603193701276    0.308838096501301    0.028317195503088  0.0000
  O3     O3        0.097985033638137    0.201960607779446    0.376203460564911  0.0000
  O2     O2        0.411327182235823    0.797582724847772    0.361132151083120  0.0000
  O3     O3        0.915211776236815    0.206275781963322    0.631179162804942  0.0000
  O2     O2        0.598117142910346    0.813996482712600    0.634726383634467  0.0000
  O2     O2        0.880824994346478    0.881579820943104    0.661988361719394  0.0000
  O2     O2        0.607984166412116    0.160175966515377    0.633941977058705  0.0000
  O3     O3        0.125153630067439    0.843470304632193    0.379645066155062  0.0000
  O2     O2        0.389316776326104    0.142342690988410    0.365996425800835  0.0000
  O3     O3        0.989816086729936    0.970033212057338    0.498387820497932  0.0000
  O2     O2        0.501687267123171    0.001410222280164    0.497852367550851  0.0000
  O3     O3        0.996635786997766    0.970035330125694    0.236168779726708  0.0000
  O2     O2        0.513300394881017    0.011543940126157    0.250482188994049  0.0000
  O2     O2        0.020853968900158    0.996582133761454    0.740892893228111  0.0000
  O2     O2        0.489360658913354    0.001539570648113    0.745967807996899  0.0000
  O2     O2        0.620264773065617    0.136321450885234    0.103516769731590  0.0000
  O2     O2        0.871870489715465    0.844388519589349    0.125540071935012  0.0000
  O3     O3        0.372407828876508    0.140021220956961    0.867113069670845  0.0000
  O2     O2        0.121439222902778    0.862905396026648    0.900812758453720  0.0000
  O2     O2        0.397969444271613    0.804088393478726    0.885466057896535  0.0000
  O2     O2        0.083215599711585    0.203062784248803    0.912408648099789  0.0000
  O2     O2        0.587447832589068    0.796413583697062    0.100010398857858  0.0000
  O2     O2        0.899554451923852    0.185998279992729    0.118593622926953  0.0000
  O2     O2        0.490083396077720    0.036972014013622    0.000096285341427  0.0000
  O2     O2        0.984412125671649    0.958077904447292    0.985116196337430  0.0000
  O2     O2        0.142727038048753    0.517315739998068    0.313368286853065  0.0000
  O2     O2        0.368161401296327    0.474199590173809    0.298308745448577  0.0000
  O3     O3        0.866964526875628    0.539086789422171    0.695556421034062  0.0000
  O2     O2        0.636688580600003    0.488407390526204    0.690075013825221  0.0000
  O2     O2        0.247224529006093    0.263547852994325    0.328006277172003  0.0000
  O2     O2        0.264125213212472    0.726886355555386    0.320315744592443  0.0000
  O3     O3        0.753096440003538    0.269317965402203    0.672445610548409  0.0000
  O2     O2        0.743511180057589    0.736907952300537    0.684693616137225  0.0000
  O2     O2        0.143362986786671    0.264833800727707    0.140535278785891  0.0000
  O2     O2        0.363238120076887    0.731851193350119    0.127018637624862  0.0000
  O3     O3        0.861024860631816    0.264557300673551    0.880505819613098  0.0000
  O2     O2        0.639762009800423    0.729975493925157    0.871111539579185  0.0000
  O2     O2        0.837051787652416    0.756636943730521    0.885098939075365  0.0000
  O2     O2        0.657440789108990    0.236781349404626    0.866286521182607  0.0000
  O2     O2        0.156793264406877    0.772592101709293    0.139540263925997  0.0000
  O3     O3        0.340952130984749    0.216486897509961    0.133109226660765  0.0000
  O2     O2        0.628227947032000    0.473008816146402    0.044216457007234  0.0000
  O2     O2        0.862770372989293    0.512279743816606    0.059799605368311  0.0000
  O3     O3        0.368144226885422    0.484765198765743    0.950990160740835  0.0000
  O2     O2        0.126389676739737    0.525337220696344    0.969141069290400  0.0000
  O2     O2        0.754319688114532    0.272502639075571    0.060410907680783  0.0000
  O2     O2        0.736186523977855    0.713566669263720    0.071413812178992  0.0000
  O3     O3        0.231151499310757    0.280147562395259    0.934341860692391  0.0000
  O2     O2        0.254162333923247    0.713319241345431    0.948415371017592  0.0000
