data_c00024.vasp
_audit_creation_method             Generated by GULP
_audit_author_name                 Salvador R. G. Balestra
_symmetry_space_group_name_H-M     'P 1             '
_symmetry_Int_Tables_number        1

loop_
_symmetry_equiv_pos_site_id
_symmetry_equiv_pos_as_xyz
_cell_length_a                       17.1157
_cell_length_b                        7.6031
_cell_length_c                       10.2996
_cell_angle_alpha                   89.5560
_cell_angle_beta                    90.0395
_cell_angle_gamma                   90.0137

loop_
_atom_site_label
_atom_site_type_symbol
_atom_site_fract_x
_atom_site_fract_y
_atom_site_fract_z
_atom_site_charge
  Ge     Ge        0.052090000000021    0.000000000000000    0.372269999999958  0.0000
  Ge     Ge        0.557789104970574    0.020906165505254    0.102505975568983  0.0000
  Ge     Ge        0.338382965594675    0.740165766142735    0.277768526228504  0.0000
  Si     Si        0.456429460481679    0.020213849869282    0.362914018908813  0.0000
  Si     Si        0.953813344992045    0.015850778813115    0.637813629194340  0.0000
  Si     Si        0.554587731761356    0.031407867136217    0.618385596839452  0.0000
  Si     Si        0.946222720905384    0.010798329572897    0.122194563765517  0.0000
  Si     Si        0.445709998926308    0.023633197813773    0.858011188591636  0.0000
  Si     Si        0.060128670812216    0.014593673193623    0.889048997427310  0.0000
  Si     Si        0.175214638292359    0.285173596463016    0.270505152384281  0.0000
  Si     Si        0.837021353727787    0.304947374892170    0.712748119938798  0.0000
  Si     Si        0.669820486531064    0.740633489731485    0.718206179705913  0.0000
  Si     Si        0.849277802660840    0.707481297766824    0.711916158255444  0.0000
  Si     Si        0.657366960582169    0.334200375815931    0.718143443049573  0.0000
  Si     Si        0.155393723264613    0.691182452442465    0.277579838529926  0.0000
  Si     Si        0.355433552093476    0.327889511410604    0.270959035279690  0.0000
  Si     Si        0.655857529000987    0.340210229853319    0.019808544222782  0.0000
  Si     Si        0.855066261094349    0.696216415940708    0.015602496277023  0.0000
  Si     Si        0.353751138933651    0.337381084474325    0.968201433754226  0.0000
  Si     Si        0.156210832533680    0.698727074426818    0.974316774771128  0.0000
  Si     Si        0.337109623925422    0.739905958004583    0.968657604609982  0.0000
  Si     Si        0.173236362382019    0.299479122811988    0.968320525351952  0.0000
  Si     Si        0.675686786843828    0.739071530076895    0.020019167604952  0.0000
  Si     Si        0.836055119204345    0.300137335744519    0.016484989090518  0.0000
  O3     O3        0.127209117171361    0.149380522117352    0.354811347867977  0.0000
  O3     O3        0.390153730356352    0.873614821077150    0.380551848373982  0.0000
  O2     O2        0.889228845164105    0.171206408603891    0.630339756919653  0.0000
  O2     O2        0.615769055284669    0.872146826016144    0.635966992738069  0.0000
  O2     O2        0.908182748008337    0.829356915733939    0.629692337071361  0.0000
  O2     O2        0.598210683432255    0.217873495867009    0.634168351395588  0.0000
  O3     O3        0.090699918927725    0.791448601909747    0.358947470578730  0.0000
  O2     O2        0.415244616981235    0.210844511764954    0.354251333181799  0.0000
  O3     O3        0.015297602778300    0.031874936835944    0.524682719241065  0.0000
  O2     O2        0.521665173587173    0.022001799379014    0.473563167802102  0.0000
  O3     O3        0.975445972671773    0.030039488862448    0.267001703305168  0.0000
  O3     O3        0.498017571956633    0.973480108276406    0.228656021130614  0.0000
  O2     O2        0.001316058682859    0.032420143496502    0.771216604661289  0.0000
  O2     O2        0.480598020945440    0.016398955643999    0.713729803487476  0.0000
  O3     O3        0.596205645583290    0.231245530866812    0.106427359337779  0.0000
  O2     O2        0.914250552292136    0.813624640083861    0.098303811723150  0.0000
  O2     O2        0.411523214136848    0.219455740088310    0.882706291673126  0.0000
  O2     O2        0.098924391426385    0.820514028805776    0.888841036998220  0.0000
  O2     O2        0.377624462297576    0.877245943798912    0.870747593495186  0.0000
  O2     O2        0.127733340807340    0.162838898807051    0.877477408761001  0.0000
  O3     O3        0.635410274000746    0.875627684791267    0.111629808677353  0.0000
  O2     O2        0.877715578273346    0.152545984617749    0.101920988148317  0.0000
  O3     O3        0.512532679510347    0.975286329470248    0.958416100026818  0.0000
  O2     O2        0.016631565842343    0.051577966845366    0.023947566554896  0.0000
  O2     O2        0.146664573444516    0.482664252806593    0.299916943142212  0.0000
  O3     O3        0.370459007966105    0.527768280518791    0.302922397119962  0.0000
  O2     O2        0.864872688127420    0.503377570193727    0.679622446702465  0.0000
  O2     O2        0.641517521421742    0.540828468684672    0.693046170246647  0.0000
  O2     O2        0.266904856164904    0.270531772668381    0.304944400145634  0.0000
  O3     O3        0.241151763608843    0.754282608025459    0.317977292622388  0.0000
  O2     O2        0.745730514815945    0.285605285347614    0.676593274175152  0.0000
  O2     O2        0.760287935492959    0.758742572816872    0.675266091792639  0.0000
  O2     O2        0.163309340305264    0.243271111041982    0.118395916283099  0.0000
  O3     O3        0.351523579432429    0.796331584441221    0.116060526812322  0.0000
  O2     O2        0.846941763926408    0.259785740558117    0.864624990221672  0.0000
  O2     O2        0.663648506251054    0.791770029296213    0.868831498794564  0.0000
  O2     O2        0.865822755978027    0.740725325540753    0.863643970446980  0.0000
  O2     O2        0.642615495596982    0.287581562058086    0.869085711223852  0.0000
  O2     O2        0.142548427892311    0.739822665642814    0.125550481562964  0.0000
  O2     O2        0.370765020352511    0.289770759165437    0.118332993691023  0.0000
  O2     O2        0.639129072468848    0.545297986200860    0.041820909667559  0.0000
  O2     O2        0.873462722203163    0.491525262727888    0.045438571150109  0.0000
  O2     O2        0.371236365238591    0.543594495002508    0.944594769068235  0.0000
  O2     O2        0.138439945632736    0.494730476799001    0.944146979188049  0.0000
  O2     O2        0.745400377649968    0.296483588671101    0.055926225094574  0.0000
  O2     O2        0.766883457361072    0.737554201668034    0.056309240889585  0.0000
  O2     O2        0.264444996596208    0.294995622031360    0.930919390810707  0.0000
  O2     O2        0.245202997335956    0.741802492389982    0.937616530206663  0.0000
