data_c00010.vasp
_audit_creation_method             Generated by GULP
_audit_author_name                 Salvador R. G. Balestra
_symmetry_space_group_name_H-M     'P 1             '
_symmetry_Int_Tables_number        1

loop_
_symmetry_equiv_pos_site_id
_symmetry_equiv_pos_as_xyz
_cell_length_a                       17.3066
_cell_length_b                        7.6410
_cell_length_c                       10.2634
_cell_angle_alpha                   90.2995
_cell_angle_beta                    91.2034
_cell_angle_gamma                   89.6168

loop_
_atom_site_label
_atom_site_type_symbol
_atom_site_fract_x
_atom_site_fract_y
_atom_site_fract_z
_atom_site_charge
  Ge     Ge        0.052090000000021    0.000000000000000    0.372269999999958  0.0000
  Ge     Ge        0.947529085415551    0.984439043140470    0.633423800888317  0.0000
  Ge     Ge        0.162021421088463    0.307251878576278    0.302276556843086  0.0000
  Si     Si        0.457777624245171    0.985335066936353    0.385508556338250  0.0000
  Si     Si        0.548053837443216    0.985310926951953    0.655178229383151  0.0000
  Si     Si        0.562108273271221    0.986589476826100    0.142241558408048  0.0000
  Si     Si        0.949634598923310    0.983919380187410    0.108581694590489  0.0000
  Si     Si        0.443603646318338    0.982305089869018    0.904282482037507  0.0000
  Si     Si        0.060685597116207    0.994647049322412    0.876519781035917  0.0000
  Si     Si        0.352460438324825    0.682686266071189    0.290506552850395  0.0000
  Si     Si        0.837807855966008    0.286531569890226    0.732913283481171  0.0000
  Si     Si        0.655507402856081    0.682251563245791    0.738707125761477  0.0000
  Si     Si        0.832998590499887    0.691649746780879    0.734820311009297  0.0000
  Si     Si        0.659835438272723    0.278835436711075    0.737860645018944  0.0000
  Si     Si        0.173755025764914    0.717243739082023    0.295581323107406  0.0000
  Si     Si        0.342999542196362    0.280843566005901    0.296177816708962  0.0000
  Si     Si        0.666228033992040    0.280741871905626    0.042028874901073  0.0000
  Si     Si        0.839434944912700    0.689105256202689    0.038211302300564  0.0000
  Si     Si        0.334879757829320    0.278104729202123    0.989318106483450  0.0000
  Si     Si        0.167827851125290    0.702349747095545    0.991852313868353  0.0000
  Si     Si        0.346283777516452    0.674427995165781    0.986795404818774  0.0000
  Si     Si        0.157090893654571    0.299660243425296    0.992421331635688  0.0000
  Si     Si        0.661337221973632    0.679684245813184    0.043382895063809  0.0000
  Si     Si        0.844822706077149    0.288919733482497    0.035978140410807  0.0000
  O1     O1        0.096549727761999    0.198076971597977    0.391856810270121  0.0000
  O2     O2        0.410750730926255    0.805265915914073    0.371122777275983  0.0000
  O3     O3        0.893956307102588    0.174593412870360    0.645886232847707  0.0000
  O2     O2        0.597329803331784    0.805495314965988    0.657351051875319  0.0000
  O3     O3        0.887422655033050    0.808220899264355    0.650656471934755  0.0000
  O2     O2        0.605433650907233    0.150571939865903    0.654196680860657  0.0000
  O3     O3        0.128550982890780    0.851899151663478    0.383307999569337  0.0000
  O2     O2        0.400987867126579    0.151136399387636    0.371289303913940  0.0000
  O1     O1        0.979935081206598    0.968870031308576    0.477521541970895  0.0000
  O2     O2        0.494763318883425    0.990121824278381    0.528127758104714  0.0000
  O3     O3        0.015098268701011    0.975891153065981    0.215602951370820  0.0000
  O2     O2        0.526468610716141    0.994289028815687    0.283834158119888  0.0000
  O3     O3        0.030654421764409    0.985904594851736    0.729021427270219  0.0000
  O2     O2        0.493410290591654    0.998431346116440    0.777704499481225  0.0000
  O2     O2        0.619650764962659    0.149839834295261    0.131177401494665  0.0000
  O2     O2        0.892053875643463    0.819269559478284    0.123763829917518  0.0000
  O2     O2        0.380988026679534    0.138840686838145    0.903808153656071  0.0000
  O2     O2        0.120032683765551    0.834239726212597    0.900342431428565  0.0000
  O2     O2        0.400156912146444    0.795875374782910    0.900440958516162  0.0000
  O2     O2        0.101169919505166    0.181914278066972    0.901524806200704  0.0000
  O2     O2        0.608729557027299    0.804579926842469    0.130043524864928  0.0000
  O2     O2        0.900422798799473    0.164624992607618    0.122153277921707  0.0000
  O2     O2        0.495582812234989    0.001332519924200    0.033480828552471  0.0000
  O2     O2        0.986178327409438    0.973992544204102    0.965592644045162  0.0000
  O3     O3        0.143271527556749    0.525265115569233    0.324361614175680  0.0000
  O2     O2        0.370866612356845    0.480178895226471    0.321580910760292  0.0000
  O2     O2        0.854289946971188    0.489856014503216    0.708010481781516  0.0000
  O2     O2        0.636265375301151    0.479709127117666    0.708564955947121  0.0000
  O3     O3        0.256946969233633    0.258302071253533    0.345595241566532  0.0000
  O2     O2        0.265102079543705    0.726744426438880    0.329958208353792  0.0000
  O2     O2        0.748291698966035    0.244638558972109    0.698544356096763  0.0000
  O2     O2        0.742845990697164    0.724608569014709    0.698186492150885  0.0000
  O3     O3        0.146900533580923    0.246290977719680    0.140650485105849  0.0000
  O2     O2        0.362706564195796    0.720787105063759    0.137830936527179  0.0000
  O2     O2        0.854851304839131    0.240337168296489    0.884332061056131  0.0000
  O2     O2        0.645624051258439    0.722934770871777    0.891754181576089  0.0000
  O2     O2        0.846828166674063    0.737938261584549    0.886850934745056  0.0000
  O2     O2        0.650207470734016    0.236737616223705    0.890383991763844  0.0000
  O2     O2        0.160264930384071    0.760014175990778    0.141927351496580  0.0000
  O2     O2        0.344075323773685    0.237245072171289    0.142260219825422  0.0000
  O2     O2        0.639356854893494    0.479168885710990    0.072469454103403  0.0000
  O2     O2        0.867953472215747    0.490168414448286    0.063478987424129  0.0000
  O2     O2        0.366876223966270    0.471766920139217    0.958869098065119  0.0000
  O2     O2        0.135780343572064    0.505107649978981    0.972760703290540  0.0000
  O2     O2        0.756749440215106    0.258129341218718    0.076179719004084  0.0000
  O2     O2        0.750936354306228    0.711392922867012    0.080537685164764  0.0000
  O2     O2        0.244975281194119    0.266703366276840    0.948731784795671  0.0000
  O2     O2        0.256821102946620    0.710547488341598    0.950288194705413  0.0000
