data_c00164.vasp
_audit_creation_method             Generated by GULP
_audit_author_name                 Salvador R. G. Balestra
_symmetry_space_group_name_H-M     'P 1             '
_symmetry_Int_Tables_number        1

loop_
_symmetry_equiv_pos_site_id
_symmetry_equiv_pos_as_xyz
_cell_length_a                       17.0924
_cell_length_b                        7.5951
_cell_length_c                       10.2969
_cell_angle_alpha                   90.3864
_cell_angle_beta                    90.8952
_cell_angle_gamma                   89.4404

loop_
_atom_site_label
_atom_site_type_symbol
_atom_site_fract_x
_atom_site_fract_y
_atom_site_fract_z
_atom_site_charge
  Ge     Ge        0.556730000000016    0.000000000000000    0.122129999999970  0.0000
  Ge     Ge        0.828309752854139    0.241565010588076    0.730275287791659  0.0000
  Ge     Ge        0.848249187435486    0.662018728631731    0.722368918520969  0.0000
  Si     Si        0.050999289175355    0.983264213214347    0.386707325153264  0.0000
  Si     Si        0.448754782957598    0.988097478258126    0.376706526024609  0.0000
  Si     Si        0.952006796519282    0.964024347675694    0.639467317180070  0.0000
  Si     Si        0.542333804699099    0.994327066153207    0.641237382750701  0.0000
  Si     Si        0.942286173345696    0.977796582912886    0.139834693339328  0.0000
  Si     Si        0.439283595353266    0.982000512164595    0.882633416384042  0.0000
  Si     Si        0.051203347896700    0.987009001948787    0.899986121728953  0.0000
  Si     Si        0.163583649834891    0.272759186854305    0.290144295013135  0.0000
  Si     Si        0.334528473821952    0.699816825346780    0.292791844352275  0.0000
  Si     Si        0.664647992996960    0.707096940629718    0.731496957206944  0.0000
  Si     Si        0.646041705726658    0.299675850670265    0.737710786755602  0.0000
  Si     Si        0.153709501803943    0.677142954872521    0.291947737137422  0.0000
  Si     Si        0.343788072664640    0.295047007882581    0.292744754199230  0.0000
  Si     Si        0.651242086956283    0.319812989097978    0.041012769033884  0.0000
  Si     Si        0.853430855205511    0.662542202946557    0.030360461475375  0.0000
  Si     Si        0.343922509420511    0.296617558312806    0.989826607997147  0.0000
  Si     Si        0.149538001106149    0.673408352039639    0.989761299286477  0.0000
  Si     Si        0.330719010800976    0.697986195176310    0.990211993394134  0.0000
  Si     Si        0.163423779997681    0.273129935869149    0.986732749883136  0.0000
  Si     Si        0.674254627625092    0.714885617621297    0.035227444358865  0.0000
  Si     Si        0.830777769384125    0.261924389269728    0.038512928139951  0.0000
  O2     O2        0.111572236025334    0.142716069847850    0.373028360897754  0.0000
  O2     O2        0.385571455056388    0.830714552473497    0.381468607861465  0.0000
  O3     O3        0.876357853311257    0.090559317389435    0.635754816407633  0.0000
  O2     O2        0.607353792940505    0.840843607438801    0.655853621264983  0.0000
  O3     O3        0.917634246451357    0.769770761439558    0.633302566194915  0.0000
  O2     O2        0.580320773844189    0.186049688361963    0.662559955653236  0.0000
  O2     O2        0.097460986582512    0.797973816659713    0.378325271550753  0.0000
  O2     O2        0.402991488504266    0.175400655719885    0.376692883427321  0.0000
  O2     O2        0.012526181486762    0.999523243969272    0.526265184651271  0.0000
  O2     O2        0.508082509946201    0.981665842643736    0.496813384741210  0.0000
  O2     O2        0.982156884719210    0.993463963549952    0.280265469352487  0.0000
  O3     O3        0.498550020237723    0.959707558004063    0.249500015249364  0.0000
  O2     O2        0.997035876786588    0.006248619729031    0.774588292378042  0.0000
  O2     O2        0.469923911531438    0.969688886571210    0.736774822057185  0.0000
  O3     O3        0.591451359497794    0.212957735575940    0.126100956695675  0.0000
  O2     O2        0.910812958848505    0.779070959691265    0.121509881372394  0.0000
  O2     O2        0.402542070986331    0.176151591854884    0.907975566363726  0.0000
  O2     O2        0.091879432025921    0.793730151358634    0.902966659778076  0.0000
  O2     O2        0.373467758563597    0.834007865076641    0.899040966909824  0.0000
  O2     O2        0.117540903168500    0.136409534573941    0.895878980735171  0.0000
  O3     O3        0.637028312720785    0.859819548231519    0.125827390213717  0.0000
  O2     O2        0.873136991261438    0.123867301439509    0.135016493601096  0.0000
  O3     O3        0.510041235317823    0.943785658456504    0.979452566398217  0.0000
  O2     O2        0.002709660620066    0.024921332212104    0.028601136268886  0.0000
  O2     O2        0.137279441963488    0.472992198347334    0.321205783124197  0.0000
  O2     O2        0.360955054764036    0.499388733344375    0.322267459847107  0.0000
  O1     O1        0.865002295586209    0.444323172947852    0.699238617823851  0.0000
  O2     O2        0.633349449815274    0.507901087130817    0.712048876959115  0.0000
  O2     O2        0.254893472953083    0.248167274880937    0.328246917569638  0.0000
  O2     O2        0.243380847549899    0.723730901012956    0.326229309145638  0.0000
  O3     O3        0.730146183882235    0.241790192628273    0.687594674468332  0.0000
  O3     O3        0.752367735021803    0.717519995794306    0.679942865627995  0.0000
  O2     O2        0.152371113194999    0.228710058455970    0.138022859909355  0.0000
  O2     O2        0.346571837395827    0.745033004732948    0.141332585732538  0.0000
  O3     O3        0.835941369741102    0.189793523675378    0.892989619227109  0.0000
  O2     O2        0.666672909662753    0.762480311380515    0.882952071440369  0.0000
  O3     O3        0.864831400705657    0.720116077173942    0.883395040661918  0.0000
  O2     O2        0.639407458669640    0.259806376391538    0.890961537846792  0.0000
  O2     O2        0.135284932769474    0.717457947047750    0.140951848800646  0.0000
  O2     O2        0.359066591266703    0.253018709615226    0.141281137497790  0.0000
  O2     O2        0.633087848000261    0.526601910703502    0.058344707704996  0.0000
  O2     O2        0.872040013403479    0.453977743132758    0.046294515014398  0.0000
  O2     O2        0.362214677497006    0.500437529464115    0.961832798294730  0.0000
  O2     O2        0.131117455841070    0.469888283031969    0.958431748529069  0.0000
  O2     O2        0.740963303271227    0.278258231756601    0.082391408839008  0.0000
  O2     O2        0.765196792880962    0.699213502581293    0.074234158597861  0.0000
  O2     O2        0.254422512532166    0.256950484161341    0.951240038468031  0.0000
  O2     O2        0.238988252443204    0.712903657173750    0.956547957102878  0.0000
