data_c00181.vasp
_audit_creation_method             Generated by GULP
_audit_author_name                 Salvador R. G. Balestra
_symmetry_space_group_name_H-M     'P 1             '
_symmetry_Int_Tables_number        1

loop_
_symmetry_equiv_pos_site_id
_symmetry_equiv_pos_as_xyz
_cell_length_a                       17.1341
_cell_length_b                        7.6173
_cell_length_c                       10.2602
_cell_angle_alpha                   90.1306
_cell_angle_beta                    89.7272
_cell_angle_gamma                   89.8808

loop_
_atom_site_label
_atom_site_type_symbol
_atom_site_fract_x
_atom_site_fract_y
_atom_site_fract_z
_atom_site_charge
  Ge     Ge        0.556730000000016    0.000000000000000    0.122129999999970  0.0000
  Ge     Ge        0.667423991880367    0.706697079978461    0.716897362732908  0.0000
  Ge     Ge        0.675639581500988    0.716701589178101    0.029654852351507  0.0000
  Si     Si        0.045376319471963    0.982255086826314    0.366032648791907  0.0000
  Si     Si        0.441513798621150    0.997709971903101    0.371951813901988  0.0000
  Si     Si        0.951983365241738    0.972257193683352    0.632570473599237  0.0000
  Si     Si        0.546270813892117    0.992022816625333    0.623732782949177  0.0000
  Si     Si        0.946890230699620    0.977235295146160    0.110519295158672  0.0000
  Si     Si        0.447669130518184    0.987489848224110    0.878645532354711  0.0000
  Si     Si        0.062067188068514    0.991401598266117    0.877702969762490  0.0000
  Si     Si        0.159113126163139    0.276727855779602    0.275417502550970  0.0000
  Si     Si        0.331919032818714    0.703178093280957    0.287964605879606  0.0000
  Si     Si        0.834592267778340    0.260732249827344    0.715197011411850  0.0000
  Si     Si        0.846499994689791    0.661434606744653    0.709773797444568  0.0000
  Si     Si        0.654204169400963    0.288725174577440    0.724000523658783  0.0000
  Si     Si        0.151440986082039    0.680150303528968    0.277101528032341  0.0000
  Si     Si        0.338557514515100    0.300855002258395    0.290141359274996  0.0000
  Si     Si        0.654555844492139    0.308940936333213    0.023134442598812  0.0000
  Si     Si        0.853386324462497    0.657543388454031    0.019810294763248  0.0000
  Si     Si        0.350045951715922    0.301307217896918    0.985828195317313  0.0000
  Si     Si        0.156350993812332    0.677406428104683    0.974334243911251  0.0000
  Si     Si        0.337208943914060    0.700815930882953    0.983772489123469  0.0000
  Si     Si        0.170117871807586    0.278255700894968    0.971214869746645  0.0000
  Si     Si        0.835515658509328    0.265032744774846    0.019383439989336  0.0000
  O2     O2        0.104276820329258    0.146326849708192    0.355955620056046  0.0000
  O2     O2        0.381302021542738    0.833672057499457    0.378673631721274  0.0000
  O2     O2        0.884018530002205    0.118993538186081    0.633713081286022  0.0000
  O3     O3        0.603696852715589    0.827479215421491    0.624172864846741  0.0000
  O2     O2        0.913477614682737    0.779914474589213    0.643923333831318  0.0000
  O2     O2        0.597047238988659    0.169150707622715    0.638489362936794  0.0000
  O2     O2        0.093891792608130    0.801095755456698    0.361277634713345  0.0000
  O2     O2        0.392845398089009    0.179614575919164    0.379578452960039  0.0000
  O2     O2        0.999707285132645    0.990354561965581    0.500534189425373  0.0000
  O2     O2        0.504381432810204    0.994425513207589    0.484901390655037  0.0000
  O2     O2        0.981403181602488    0.989067268543100    0.253555656706221  0.0000
  O3     O3        0.485963608888612    0.983657096980993    0.236371314785980  0.0000
  O2     O2        0.012276052837748    0.004326382858008    0.748388994244654  0.0000
  O2     O2        0.477850770671654    0.982241495229398    0.730969832699064  0.0000
  O3     O3        0.598411593788029    0.205985164671833    0.119728770366277  0.0000
  O2     O2        0.920435515428315    0.778207101932923    0.081221909263944  0.0000
  O2     O2        0.411646791368099    0.180019010839823    0.910049452966189  0.0000
  O2     O2        0.102174076797887    0.799502528758500    0.885255851990193  0.0000
  O2     O2        0.381819857005964    0.838215268617724    0.894014710830657  0.0000
  O2     O2        0.128040716534594    0.141950786140174    0.875800101110270  0.0000
  O1     O1        0.629712904394555    0.849096379097031    0.138909932284311  0.0000
  O2     O2        0.874546663871757    0.112732220869693    0.104622948680117  0.0000
  O3     O3        0.517765351288720    0.943110809218491    0.972443350273387  0.0000
  O2     O2        0.009532453554046    0.034335458407795    0.003147175591742  0.0000
  O2     O2        0.132751928492785    0.476489696323529    0.304617153756811  0.0000
  O2     O2        0.356433371059906    0.503857744142569    0.321779543877275  0.0000
  O2     O2        0.865265391295024    0.456070634750741    0.681769388769294  0.0000
  O3     O3        0.635733471876836    0.491384028435899    0.707188352436079  0.0000
  O2     O2        0.248628996030206    0.253886712390427    0.319818837361834  0.0000
  O2     O2        0.240005413902913    0.726649536258548    0.315959287545289  0.0000
  O2     O2        0.743344759859542    0.246457246410410    0.679057602062257  0.0000
  O3     O3        0.762209513356622    0.710876444896908    0.655581080524557  0.0000
  O2     O2        0.153451675056973    0.232514733377602    0.122165243914041  0.0000
  O2     O2        0.349035337236871    0.745435532532671    0.136266550620616  0.0000
  O2     O2        0.844555582814826    0.216176056872158    0.867511449566264  0.0000
  O1     O1        0.668265619208050    0.788305278792931    0.871701978729735  0.0000
  O2     O2        0.843819241592654    0.692481569938958    0.865473739188241  0.0000
  O2     O2        0.642606235545655    0.235391350791755    0.875748753275289  0.0000
  O2     O2        0.137643298556942    0.721504294927546    0.124938690851683  0.0000
  O2     O2        0.358612434285659    0.261759856364857    0.139114446859063  0.0000
  O3     O3        0.633496204689479    0.510732604978968    0.030855102131611  0.0000
  O2     O2        0.876078300725763    0.453749139000950    0.045796480464154  0.0000
  O2     O2        0.369723167652821    0.504558449083475    0.956216678046808  0.0000
  O2     O2        0.138832492647338    0.474301554270527    0.941774098126995  0.0000
  O2     O2        0.745229112830173    0.277326584421579    0.060772810818372  0.0000
  O3     O3        0.771058516422404    0.702776930008520    0.082884857230923  0.0000
  O2     O2        0.262028588142552    0.262011652857521    0.941214325402026  0.0000
  O2     O2        0.246802067267575    0.715396289924087    0.945999372237034  0.0000
