data_c00130.vasp
_audit_creation_method             Generated by GULP
_audit_author_name                 Salvador R. G. Balestra
_symmetry_space_group_name_H-M     'P 1             '
_symmetry_Int_Tables_number        1

loop_
_symmetry_equiv_pos_site_id
_symmetry_equiv_pos_as_xyz
_cell_length_a                       16.9713
_cell_length_b                        7.5905
_cell_length_c                       10.3223
_cell_angle_alpha                   89.9507
_cell_angle_beta                    90.7220
_cell_angle_gamma                   90.3553

loop_
_atom_site_label
_atom_site_type_symbol
_atom_site_fract_x
_atom_site_fract_y
_atom_site_fract_z
_atom_site_charge
  Ge     Ge        0.556730000000016    0.000000000000000    0.122129999999970  0.0000
  Ge     Ge        0.438297365525515    0.009661512451572    0.880588724928757  0.0000
  Ge     Ge        0.827440927259567    0.737117137958189    0.016462204246197  0.0000
  Si     Si        0.050877629422041    0.017125829027078    0.366951012240762  0.0000
  Si     Si        0.452196776370177    0.003980873341338    0.369618156350091  0.0000
  Si     Si        0.947865996863388    0.017422617573416    0.620244497387008  0.0000
  Si     Si        0.548644547966795    0.997008309247804    0.629038439289711  0.0000
  Si     Si        0.939499660143002    0.018591151858370    0.118363916188137  0.0000
  Si     Si        0.045951708575745    0.006991319252494    0.879804495345745  0.0000
  Si     Si        0.154017217479018    0.323190237774706    0.282816965539046  0.0000
  Si     Si        0.346575033964134    0.699966718710091    0.266238657681754  0.0000
  Si     Si        0.848599518022086    0.325740735363394    0.710230450312059  0.0000
  Si     Si        0.650584366851563    0.685055325545403    0.706777425495068  0.0000
  Si     Si        0.830394256136273    0.731701808341340    0.708030367542304  0.0000
  Si     Si        0.666653205213496    0.282152677617967    0.707262124235451  0.0000
  Si     Si        0.165101638446987    0.727433163885180    0.278223343708970  0.0000
  Si     Si        0.334563423223973    0.291710650804993    0.267342380454589  0.0000
  Si     Si        0.671058792201133    0.281165064121966    0.008139022475689  0.0000
  Si     Si        0.321558054609067    0.288275658980211    0.966449906512432  0.0000
  Si     Si        0.159155536548452    0.723466716639052    0.976024312151158  0.0000
  Si     Si        0.341394225453354    0.688678029794600    0.966307152241888  0.0000
  Si     Si        0.140609227094567    0.325524852418191    0.980742167345231  0.0000
  Si     Si        0.644286038512569    0.675323175839618    0.011046885122138  0.0000
  Si     Si        0.854580240262139    0.337442069183244    0.009301023958759  0.0000
  O2     O2        0.097489146500691    0.203185019613423    0.370437545758044  0.0000
  O2     O2        0.407991776928536    0.816932782041145    0.348184486975762  0.0000
  O2     O2        0.906344815716356    0.208790581278115    0.623298577175328  0.0000
  O2     O2        0.588242450021995    0.803363894152851    0.626932969840435  0.0000
  O2     O2        0.881360144176253    0.864582813213695    0.620697483530437  0.0000
  O2     O2        0.617592453200354    0.145608252441739    0.618143169526378  0.0000
  O2     O2        0.114643516876950    0.860099412606090    0.364282643616664  0.0000
  O2     O2        0.391031186001947    0.163619485384214    0.348662259024930  0.0000
  O2     O2        0.997676627404048    0.999792577771206    0.491605437388415  0.0000
  O2     O2        0.484138967621337    0.012022834249747    0.515885654455119  0.0000
  O2     O2        0.994137772891422    0.004174177012188    0.243085134293737  0.0000
  O3     O3        0.527628804120485    0.018537706862052    0.279986288144958  0.0000
  O2     O2        0.007864939788868    0.992730432282356    0.739175122752814  0.0000
  O3     O3        0.504293870498825    0.034971384064846    0.760381732537958  0.0000
  O3     O3        0.639363136331055    0.131007863787773    0.099895334314947  0.0000
  O3     O3        0.866121371475278    0.887522863857494    0.124403857104777  0.0000
  O3     O3        0.360196139775467    0.155180628074352    0.869504640761589  0.0000
  O2     O2        0.116373727091979    0.866400840344583    0.886806286470220  0.0000
  O3     O3        0.398701786904380    0.798656920794298    0.877135441249693  0.0000
  O2     O2        0.078482629909515    0.205065131362242    0.902793877793997  0.0000
  O3     O3        0.578687946178447    0.783368398960571    0.084090626673271  0.0000
  O2     O2        0.909348529569854    0.218627445996405    0.101770967624338  0.0000
  O1     O1        0.483162778780938    0.068672927154366    0.022697850333950  0.0000
  O2     O2        0.984052231147084    0.952932321802487    0.989396782300161  0.0000
  O2     O2        0.138806640322452    0.528256411025659    0.312558791291283  0.0000
  O2     O2        0.362965260359168    0.493239310500362    0.289715547013913  0.0000
  O2     O2        0.863345885476760    0.533636173025256    0.688951642401363  0.0000
  O2     O2        0.633816319551202    0.478687220198976    0.680301442432899  0.0000
  O2     O2        0.244570748279808    0.273511539676603    0.314656687847300  0.0000
  O2     O2        0.258125590041559    0.749186910587282    0.308734211569321  0.0000
  O2     O2        0.758777513782734    0.275596280606943    0.671941850829122  0.0000
  O2     O2        0.738809590200750    0.735196839356638    0.662601585353975  0.0000
  O2     O2        0.133229824861707    0.282998801895464    0.132994568721558  0.0000
  O2     O2        0.359971470467671    0.745777836620892    0.115379534726043  0.0000
  O2     O2        0.867371409072099    0.279287174956150    0.860042373093443  0.0000
  O2     O2        0.640756132734469    0.726163009843608    0.858506873406334  0.0000
  O3     O3        0.834809703782083    0.794946329357976    0.855423431005714  0.0000
  O2     O2        0.657657336997421    0.227286881406019    0.857603748633500  0.0000
  O2     O2        0.150060419183149    0.771060190579875    0.127266778528922  0.0000
  O2     O2        0.337565888045459    0.236703766259567    0.116941327095620  0.0000
  O2     O2        0.627113121255535    0.467155354658584    0.030937107286301  0.0000
  O3     O3        0.875752395317621    0.538033567357096    0.033753877838066  0.0000
  O2     O2        0.357380614573052    0.483145604317336    0.944344458193934  0.0000
  O2     O2        0.121506576528096    0.529829000556013    0.951432923583232  0.0000
  O2     O2        0.762844068946630    0.309094534047444    0.040591037517359  0.0000
  O3     O3        0.730678321844597    0.723797181290931    0.063031016009188  0.0000
  O2     O2        0.228521456866142    0.284855824620192    0.935969866208105  0.0000
  O2     O2        0.250023347865197    0.728547743645636    0.936081766494516  0.0000
