data_c00199.vasp
_audit_creation_method             Generated by GULP
_audit_author_name                 Salvador R. G. Balestra
_symmetry_space_group_name_H-M     'P 1             '
_symmetry_Int_Tables_number        1

loop_
_symmetry_equiv_pos_site_id
_symmetry_equiv_pos_as_xyz
_cell_length_a                       17.1465
_cell_length_b                        7.6102
_cell_length_c                       10.3086
_cell_angle_alpha                   89.4071
_cell_angle_beta                    90.0453
_cell_angle_gamma                   89.5276

loop_
_atom_site_label
_atom_site_type_symbol
_atom_site_fract_x
_atom_site_fract_y
_atom_site_fract_z
_atom_site_charge
  Ge     Ge        0.160189999999943    0.293909999999983    0.273440000000051  0.0000
  Ge     Ge        0.361149010992316    0.661557778111767    0.270318309627631  0.0000
  Ge     Ge        0.856841389167214    0.297647365238134    0.699755088045329  0.0000
  Si     Si        0.056787735442449    0.985113625053045    0.360364521174569  0.0000
  Si     Si        0.465128060224456    0.968360811476265    0.354573734914057  0.0000
  Si     Si        0.962955383174931    0.989994274343162    0.619418263939229  0.0000
  Si     Si        0.557573569803484    0.988361270647609    0.617989805353315  0.0000
  Si     Si        0.566958259554769    0.977784420415346    0.100235193781423  0.0000
  Si     Si        0.952668772271514    0.978564674899891    0.109568293154117  0.0000
  Si     Si        0.450724051889067    0.974161884980026    0.864045507411424  0.0000
  Si     Si        0.067383780798507    0.986671833137630    0.872232442942271  0.0000
  Si     Si        0.663971960198204    0.682049771491085    0.709766797150390  0.0000
  Si     Si        0.843905430954425    0.709290352060193    0.710055635723049  0.0000
  Si     Si        0.673966194242710    0.277066804169306    0.703336500432551  0.0000
  Si     Si        0.177889822961898    0.702997096082465    0.269766188701367  0.0000
  Si     Si        0.343631908068068    0.252006469047593    0.270190125075136  0.0000
  Si     Si        0.677518278145306    0.268223860142826    0.007850506391172  0.0000
  Si     Si        0.843538249138754    0.691448822854991    0.013010283490626  0.0000
  Si     Si        0.340263887566961    0.262138988070453    0.965424201108954  0.0000
  Si     Si        0.179243377866708    0.696168658834078    0.964608736285327  0.0000
  Si     Si        0.358471540620682    0.660866646203309    0.962270616664564  0.0000
  Si     Si        0.160789215853665    0.298129463604901    0.965323770410772  0.0000
  Si     Si        0.663693205654013    0.665868181922151    0.011945482998224  0.0000
  Si     Si        0.857248495230964    0.291236907712027    0.008834356085206  0.0000
  O3     O3        0.093027499801011    0.177599214010733    0.362284179335852  0.0000
  O3     O3        0.428757995514284    0.776169303296300    0.357874445560947  0.0000
  O3     O3        0.924406281632232    0.181694449485261    0.611084041134537  0.0000
  O2     O2        0.605777748234701    0.805875347738866    0.628039309431188  0.0000
  O2     O2        0.890834808482405    0.856125763810588    0.631662809573707  0.0000
  O2     O2        0.615840879346579    0.151878050591464    0.627117604520731  0.0000
  O2     O2        0.128934579576202    0.850782664437380    0.343891201485094  0.0000
  O2     O2        0.392612074567293    0.104207823854586    0.346903999773707  0.0000
  O2     O2        0.012486690160112    0.944320481231997    0.493264456304328  0.0000
  O2     O2        0.516338845750856    0.002048792446917    0.480285361337635  0.0000
  O2     O2        0.994473041453151    0.962111010163701    0.246441976242230  0.0000
  O2     O2        0.520559290303098    0.998668769264402    0.231770969284703  0.0000
  O2     O2        0.020629124522564    0.968457962669676    0.740511113960349  0.0000
  O2     O2        0.490848371521939    0.997999283689892    0.725976406197089  0.0000
  O2     O2        0.632660279450075    0.127087048199813    0.094621132707240  0.0000
  O2     O2        0.888282140208209    0.825949085369897    0.104052186896781  0.0000
  O2     O2        0.383148827866026    0.121098578567312    0.876016854900735  0.0000
  O2     O2        0.135313302434636    0.839189493166110    0.875724073522043  0.0000
  O2     O2        0.414549535574130    0.778948087724225    0.871915103892759  0.0000
  O2     O2        0.104010214373134    0.181655159548853    0.876581208715130  0.0000
  O2     O2        0.606954162983247    0.784820647405902    0.098588479283267  0.0000
  O2     O2        0.912690536819685    0.170667792206419    0.099084640987405  0.0000
  O2     O2        0.511730283125208    0.007715930875233    0.977629536475681  0.0000
  O2     O2        0.012956438285939    0.947537940588314    0.994375285821281  0.0000
  O3     O3        0.141667264782899    0.513647844178989    0.297017489406095  0.0000
  O3     O3        0.379772221853835    0.441434316856738    0.294300679925159  0.0000
  O3     O3        0.875005997165131    0.517722181948644    0.676002775675461  0.0000
  O2     O2        0.646818297086817    0.478997283146002    0.679639938096886  0.0000
  O3     O3        0.255073597108911    0.248219439215127    0.318667499654617  0.0000
  O3     O3        0.266610579766024    0.706989124004025    0.317372409287890  0.0000
  O3     O3        0.761878720149321    0.253341819404669    0.655288503871421  0.0000
  O2     O2        0.752788727626123    0.725860169796638    0.671453527978406  0.0000
  O3     O3        0.147311797502499    0.239845798615218    0.112664926084354  0.0000
  O3     O3        0.372593843380761    0.718252488483487    0.108863739429801  0.0000
  O3     O3        0.871099452973764    0.240625403531522    0.860760130095402  0.0000
  O2     O2        0.650729834464023    0.719534078844811    0.861804112221725  0.0000
  O2     O2        0.853125288026266    0.746183196749727    0.863054671516054  0.0000
  O2     O2        0.670654022079627    0.227117141470477    0.855719207705927  0.0000
  O2     O2        0.176130384804669    0.745354156895672    0.115631344630972  0.0000
  O2     O2        0.345054548701961    0.209322685049187    0.116532904309752  0.0000
  O2     O2        0.642514089469652    0.462201994989858    0.035939001344164  0.0000
  O2     O2        0.878043040181110    0.494929784145372    0.033441923034456  0.0000
  O2     O2        0.378567366609868    0.454350991172594    0.944310236723517  0.0000
  O2     O2        0.140564877481229    0.504650062229827    0.944855352762784  0.0000
  O2     O2        0.767736921758399    0.258831641619175    0.048296784681994  0.0000
  O2     O2        0.752908134181811    0.698150445882965    0.052252272741561  0.0000
  O2     O2        0.250112998168543    0.265568477679817    0.923189302353401  0.0000
  O2     O2        0.268958253268728    0.693326272694980    0.920250482987738  0.0000
