data_c00170.vasp
_audit_creation_method             Generated by GULP
_audit_author_name                 Salvador R. G. Balestra
_symmetry_space_group_name_H-M     'P 1             '
_symmetry_Int_Tables_number        1

loop_
_symmetry_equiv_pos_site_id
_symmetry_equiv_pos_as_xyz
_cell_length_a                       17.0950
_cell_length_b                        7.6218
_cell_length_c                       10.2587
_cell_angle_alpha                   89.8052
_cell_angle_beta                    90.8831
_cell_angle_gamma                   90.1405

loop_
_atom_site_label
_atom_site_type_symbol
_atom_site_fract_x
_atom_site_fract_y
_atom_site_fract_z
_atom_site_charge
  Ge     Ge        0.556730000000016    0.000000000000000    0.122129999999970  0.0000
  Ge     Ge        0.838218187826684    0.287119998548470    0.706251596628946  0.0000
  Ge     Ge        0.331976358665901    0.711812188983632    0.963455436977080  0.0000
  Si     Si        0.053805688597853    0.987486735052543    0.368228481532053  0.0000
  Si     Si        0.451546011255120    0.004323008411337    0.375366389610984  0.0000
  Si     Si        0.955275601633600    0.999086471464149    0.624372768294622  0.0000
  Si     Si        0.551191606523879    0.015060235996979    0.633152961504225  0.0000
  Si     Si        0.943782513950665    0.993809217728008    0.122712017060900  0.0000
  Si     Si        0.443556177297992    0.996216187763174    0.878901864603828  0.0000
  Si     Si        0.054869562112933    0.991734776968239    0.885266653170782  0.0000
  Si     Si        0.167333298230591    0.280706618063066    0.276989623051429  0.0000
  Si     Si        0.336584805500029    0.714487090069161    0.273733295635219  0.0000
  Si     Si        0.666909818976118    0.726115538600089    0.714496313295357  0.0000
  Si     Si        0.848885595131540    0.697739117196376    0.713031286431950  0.0000
  Si     Si        0.655402292730282    0.321934264199199    0.704789475861882  0.0000
  Si     Si        0.157811489774622    0.682734218346140    0.273663045443670  0.0000
  Si     Si        0.347338656079551    0.307430959335421    0.276667987514426  0.0000
  Si     Si        0.654437661243891    0.316945693044269    0.010301095651553  0.0000
  Si     Si        0.851782448585602    0.680151226646909    0.015614336128402  0.0000
  Si     Si        0.349265535742803    0.309593194208476    0.974316599262823  0.0000
  Si     Si        0.149738379255214    0.672563307856819    0.966568871320770  0.0000
  Si     Si        0.167306743358737    0.278001797371672    0.972865247449237  0.0000
  Si     Si        0.670758273868751    0.716258277755234    0.016955779599643  0.0000
  Si     Si        0.834277779051053    0.278768025926699    0.016669496480232  0.0000
  O2     O2        0.115430218130627    0.147417486165464    0.359997467531440  0.0000
  O2     O2        0.391060745363322    0.843057880425512    0.358902265818249  0.0000
  O3     O3        0.896291741154279    0.160083120778003    0.609967509133339  0.0000
  O2     O2        0.616668539683547    0.862176661102757    0.627659858866386  0.0000
  O2     O2        0.903233368929928    0.822847978870120    0.627562614036668  0.0000
  O2     O2        0.593055863581749    0.204965999311671    0.623114888646454  0.0000
  O2     O2        0.098223501005836    0.803396195080791    0.351322817180481  0.0000
  O2     O2        0.406278338051830    0.189890682688904    0.362269309110653  0.0000
  O2     O2        0.016554073307327    0.989164221454083    0.509377297730769  0.0000
  O2     O2        0.487867251526722    0.992060892143638    0.519498991608333  0.0000
  O2     O2        0.983988830081806    0.008284751910076    0.263511466730160  0.0000
  O3     O3        0.522785124638504    0.993995573359708    0.277828073603572  0.0000
  O2     O2        0.004175268560609    0.024621938013286    0.757322458811801  0.0000
  O2     O2        0.506903406115740    0.998869401956467    0.768272763419554  0.0000
  O3     O3        0.592408009971996    0.207283180539568    0.089269393893975  0.0000
  O2     O2        0.908129225570668    0.798211010567125    0.106511191277171  0.0000
  O2     O2        0.403911121386831    0.187576103842830    0.888386109059363  0.0000
  O2     O2        0.086491652068669    0.792064390330322    0.889974638630316  0.0000
  O3     O3        0.376588864411031    0.852687237314938    0.857190011107006  0.0000
  O2     O2        0.127098922077543    0.128796273834065    0.885234616675785  0.0000
  O3     O3        0.631317788551443    0.848874043833070    0.113101391057034  0.0000
  O2     O2        0.876880285065325    0.141737226199022    0.113215344386617  0.0000
  O3     O3        0.483987565948497    0.940018344845039    0.014951326795300  0.0000
  O2     O2        0.005826734565950    0.035920773728772    0.012135292119700  0.0000
  O2     O2        0.138965983462863    0.479091048700964    0.303865079283712  0.0000
  O2     O2        0.365355084711626    0.513797883210211    0.294979077256164  0.0000
  O3     O3        0.868550798054301    0.499970604102900    0.681821165108398  0.0000
  O2     O2        0.637869363415095    0.528533573055338    0.683515385014058  0.0000
  O2     O2        0.258593302675141    0.263755317746579    0.317732389377214  0.0000
  O2     O2        0.246430973869769    0.728639765485946    0.318362853609019  0.0000
  O3     O3        0.741288856016523    0.275430005852012    0.657859826617573  0.0000
  O2     O2        0.758201976054216    0.742606075293189    0.679665403057179  0.0000
  O2     O2        0.158255713509355    0.232026048852553    0.125138794393273  0.0000
  O3     O3        0.341405372616648    0.772998528390988    0.124668753568286  0.0000
  O3     O3        0.845235160919352    0.223701512782290    0.867692807693915  0.0000
  O2     O2        0.656056172294070    0.773714137382980    0.866381083390277  0.0000
  O2     O2        0.866238365715255    0.734535002790968    0.866058888572701  0.0000
  O2     O2        0.647532448435954    0.272615352055572    0.857053175699896  0.0000
  O2     O2        0.148221798504358    0.719582670189216    0.119858485841848  0.0000
  O2     O2        0.361275769795050    0.256762351994267    0.126260043658543  0.0000
  O2     O2        0.636124392455214    0.521049519118703    0.035678076286790  0.0000
  O2     O2        0.870229681979593    0.474429209040093    0.037059116690666  0.0000
  O3     O3        0.373461928725467    0.506990335027564    0.948586122157501  0.0000
  O2     O2        0.128271131410693    0.467753262174595    0.943685299321504  0.0000
  O2     O2        0.743320277902332    0.274603757814122    0.055126510719546  0.0000
  O2     O2        0.762655024948894    0.717253773677162    0.051115077982231  0.0000
  O2     O2        0.258131801787082    0.284026029145647    0.935746138325197  0.0000
  O3     O3        0.235304728771455    0.709658924103127    0.914998427322159  0.0000
