data_c00190.vasp
_audit_creation_method             Generated by GULP
_audit_author_name                 Salvador R. G. Balestra
_symmetry_space_group_name_H-M     'P 1             '
_symmetry_Int_Tables_number        1

loop_
_symmetry_equiv_pos_site_id
_symmetry_equiv_pos_as_xyz
_cell_length_a                       16.9388
_cell_length_b                        7.6145
_cell_length_c                       10.3308
_cell_angle_alpha                   89.6779
_cell_angle_beta                    90.3772
_cell_angle_gamma                   90.3119

loop_
_atom_site_label
_atom_site_type_symbol
_atom_site_fract_x
_atom_site_fract_y
_atom_site_fract_z
_atom_site_charge
  Ge     Ge        0.556730000000016    0.000000000000000    0.122129999999970  0.0000
  Ge     Ge        0.831140829299730    0.732659474032611    0.026218453400357  0.0000
  Ge     Ge        0.333220896255240    0.296251289799158    0.973335363521043  0.0000
  Si     Si        0.054999497478305    0.016899927789282    0.374031436915654  0.0000
  Si     Si        0.455588410392132    0.005630417650477    0.379413368555489  0.0000
  Si     Si        0.954880764102848    0.016777827717215    0.631633159256902  0.0000
  Si     Si        0.555023323988480    0.994863493368490    0.636772939522028  0.0000
  Si     Si        0.943650469103754    0.014789731424437    0.126670964418902  0.0000
  Si     Si        0.444630182381969    0.016175191125891    0.881351736932577  0.0000
  Si     Si        0.053361895103052    0.010585823941190    0.889919656858696  0.0000
  Si     Si        0.159539899810572    0.324209751346122    0.288653510835345  0.0000
  Si     Si        0.350837893930396    0.701985309751195    0.280924750657030  0.0000
  Si     Si        0.853678780417425    0.323150116428168    0.720902676321688  0.0000
  Si     Si        0.657774502106972    0.685231310365242    0.713817874581000  0.0000
  Si     Si        0.837758169675657    0.728076844474023    0.718231931583936  0.0000
  Si     Si        0.671538766704245    0.283906105325975    0.716433796795850  0.0000
  Si     Si        0.168687425598107    0.726247599000090    0.287121434139085  0.0000
  Si     Si        0.340077324948290    0.294620692302759    0.281106891089682  0.0000
  Si     Si        0.673280392058442    0.282896037531365    0.017145017250571  0.0000
  Si     Si        0.166307027625098    0.726139521754911    0.985664722852532  0.0000
  Si     Si        0.350608427865719    0.700147918268303    0.981462571845777  0.0000
  Si     Si        0.148946703220472    0.329426332298674    0.984276496522497  0.0000
  Si     Si        0.647792793911758    0.676621617566185    0.017885403686156  0.0000
  Si     Si        0.857118094294322    0.333374683624004    0.020052852364259  0.0000
  O2     O2        0.101255856214291    0.202343839819906    0.371755459200608  0.0000
  O2     O2        0.409904332997785    0.819521291179476    0.365753717625551  0.0000
  O2     O2        0.911793839409860    0.205647194656347    0.635402008595370  0.0000
  O2     O2        0.597372588195284    0.805413827727512    0.631946313368424  0.0000
  O2     O2        0.890137533562385    0.860817549324744    0.632578962314791  0.0000
  O2     O2        0.621571410231254    0.147742584655545    0.629907163981154  0.0000
  O2     O2        0.118158039252942    0.858904145937447    0.372633296130770  0.0000
  O2     O2        0.394734267975511    0.166913580988133    0.366459395020949  0.0000
  O2     O2        0.003979773147023    0.003620821767148    0.501716143356246  0.0000
  O2     O2        0.493748794109824    0.013602787536382    0.520725458115257  0.0000
  O2     O2        0.996894508429361    0.001057101027643    0.252757817334317  0.0000
  O3     O3        0.525628336164380    0.020215915832548    0.278088994604505  0.0000
  O2     O2        0.015862618112340    0.994764277298634    0.749272741399017  0.0000
  O2     O2        0.506989700361050    0.014901372425711    0.768046861430650  0.0000
  O3     O3        0.639224322008610    0.133245711294707    0.107084353906529  0.0000
  O3     O3        0.871241561590521    0.881461049399451    0.132493457613313  0.0000
  O3     O3        0.376867232566428    0.159222603314622    0.864058016953943  0.0000
  O2     O2        0.125477802942741    0.873350919701017    0.897466524892957  0.0000
  O2     O2        0.404303908523814    0.824009104632991    0.892560326439873  0.0000
  O2     O2        0.084016004013891    0.209385682104953    0.912741553587108  0.0000
  O3     O3        0.581047496897538    0.784711364891743    0.088808338614781  0.0000
  O2     O2        0.911685900517499    0.213098311864845    0.111426232776665  0.0000
  O3     O3        0.486760963320007    0.073187787926309    0.014613547835087  0.0000
  O2     O2        0.991161386158817    0.954346670024380    0.999200799873491  0.0000
  O2     O2        0.140262488005007    0.527513830964388    0.316861908454845  0.0000
  O2     O2        0.369421769677240    0.495928153982845    0.299060632319134  0.0000
  O2     O2        0.870257415397271    0.530019958890013    0.700018401769392  0.0000
  O2     O2        0.639476899792485    0.480136475524440    0.687777294551242  0.0000
  O2     O2        0.249537822405726    0.280917833221790    0.328613914521303  0.0000
  O2     O2        0.261288473605948    0.744063746059634    0.322094098267030  0.0000
  O2     O2        0.763865781757033    0.275603296451687    0.680541378306747  0.0000
  O2     O2        0.746715240677595    0.732319851164037    0.670138772051863  0.0000
  O2     O2        0.147783271004592    0.284129776506626    0.137038178368849  0.0000
  O2     O2        0.365247694081210    0.754717676148136    0.131234120700340  0.0000
  O2     O2        0.870063721571772    0.275662984622021    0.871019882117404  0.0000
  O2     O2        0.648183113288446    0.726222600880770    0.865284853128161  0.0000
  O3     O3        0.840649428723685    0.790516501728397    0.865425019029221  0.0000
  O2     O2        0.661849774627598    0.230193743944114    0.866578160670943  0.0000
  O2     O2        0.156604936580140    0.774635338699072    0.136363297365180  0.0000
  O3     O3        0.344544793503921    0.234799345031660    0.133531574913277  0.0000
  O2     O2        0.629984170569879    0.469443477278993    0.038708816612345  0.0000
  O3     O3        0.878556513411883    0.533041712408220    0.044420457587119  0.0000
  O3     O3        0.374287429513707    0.502748299878040    0.956213020142000  0.0000
  O2     O2        0.127817514932215    0.534461171302628    0.960060449522231  0.0000
  O2     O2        0.765031801619106    0.307100641983914    0.052175718699350  0.0000
  O3     O3        0.733844103302881    0.723776906952394    0.072249152176957  0.0000
  O3     O3        0.234909017187871    0.292787601868430    0.930718301524109  0.0000
  O2     O2        0.258071900401931    0.722981555453317    0.948314011717629  0.0000
