data_c00160.vasp
_audit_creation_method             Generated by GULP
_audit_author_name                 Salvador R. G. Balestra
_symmetry_space_group_name_H-M     'P 1             '
_symmetry_Int_Tables_number        1

loop_
_symmetry_equiv_pos_site_id
_symmetry_equiv_pos_as_xyz
_cell_length_a                       17.0691
_cell_length_b                        7.6170
_cell_length_c                       10.2636
_cell_angle_alpha                   89.7220
_cell_angle_beta                    89.7602
_cell_angle_gamma                   89.9810

loop_
_atom_site_label
_atom_site_type_symbol
_atom_site_fract_x
_atom_site_fract_y
_atom_site_fract_z
_atom_site_charge
  Ge     Ge        0.556730000000016    0.000000000000000    0.122129999999970  0.0000
  Ge     Ge        0.332519273077145    0.715457075815347    0.298289218864555  0.0000
  Ge     Ge        0.169506717453423    0.275558590705496    0.977466079188031  0.0000
  Si     Si        0.047006743471398    0.984961090727640    0.377085608646302  0.0000
  Si     Si        0.449490918650791    0.000285202491396    0.380837189707804  0.0000
  Si     Si        0.946836850132555    0.988254092774644    0.635914540656190  0.0000
  Si     Si        0.548997897626768    0.007952490257700    0.635863804448066  0.0000
  Si     Si        0.948172273735416    0.997143026531131    0.121784369244115  0.0000
  Si     Si        0.444539401409848    0.000943757786605    0.881504566582796  0.0000
  Si     Si        0.058405818218247    0.991923531894720    0.882243133642686  0.0000
  Si     Si        0.164530811874168    0.271045917135140    0.287008702799409  0.0000
  Si     Si        0.833399518337569    0.281704995888873    0.723532975713585  0.0000
  Si     Si        0.663616191844796    0.715358437842570    0.733551378218887  0.0000
  Si     Si        0.843360484089617    0.683432485450685    0.718320829603674  0.0000
  Si     Si        0.652922941264999    0.309711342464700    0.735505818178849  0.0000
  Si     Si        0.148864247723431    0.677274063954110    0.289054651083145  0.0000
  Si     Si        0.344716339198204    0.306588753063686    0.294738642974878  0.0000
  Si     Si        0.654966923127190    0.319015275339779    0.037706311633249  0.0000
  Si     Si        0.853769866399515    0.680981829165723    0.022512741855867  0.0000
  Si     Si        0.352037236043501    0.317404317061929    0.988577487182517  0.0000
  Si     Si        0.151897531105997    0.678465785918474    0.985439100922714  0.0000
  Si     Si        0.333973493277699    0.717002903504702    0.988774485814309  0.0000
  Si     Si        0.673812729051915    0.718289232494853    0.036299165032169  0.0000
  Si     Si        0.836005496139006    0.284325990896365    0.027882773624930  0.0000
  O2     O2        0.113284066363177    0.135738513259895    0.372194168757788  0.0000
  O3     O3        0.385626587128411    0.848546862731529    0.399259337190483  0.0000
  O2     O2        0.884542310712557    0.147691033055752    0.638689515870598  0.0000
  O2     O2        0.608701484241642    0.845391767499141    0.651769305057572  0.0000
  O2     O2        0.899706474946256    0.804828213132267    0.630732586933063  0.0000
  O2     O2        0.594211554611394    0.191967927083552    0.652039073897797  0.0000
  O2     O2        0.086251305121906    0.792193950436695    0.369658844345092  0.0000
  O2     O2        0.403372863378129    0.185023684339503    0.376515769803975  0.0000
  O2     O2        0.001573473267869    0.005212740101535    0.511510509655688  0.0000
  O2     O2        0.515126091752781    0.003393051774124    0.491201515535838  0.0000
  O2     O2        0.984212783844840    0.010470278854058    0.263647957363546  0.0000
  O3     O3        0.492731068740606    0.962477327936233    0.245465773314054  0.0000
  O2     O2        0.001605071785107    0.994776774006966    0.761083370886478  0.0000
  O2     O2        0.475668637579882    0.995187265624533    0.733926599355429  0.0000
  O3     O3        0.596446649368027    0.208911110076270    0.126503740732498  0.0000
  O2     O2        0.915036090672655    0.801148263355174    0.099200192124522  0.0000
  O2     O2        0.416191815398027    0.198895841345000    0.915018649470928  0.0000
  O2     O2        0.097437742398811    0.800336312790034    0.896297529504397  0.0000
  O2     O2        0.374134988615101    0.859973303818246    0.894487386515754  0.0000
  O3     O3        0.126049343567782    0.135178557765662    0.869669200041196  0.0000
  O3     O3        0.633708628307327    0.852603708384189    0.131427184639821  0.0000
  O2     O2        0.879235061962130    0.140405624830105    0.114959479566868  0.0000
  O3     O3        0.512854801221451    0.946587531321901    0.977469800449117  0.0000
  O2     O2        0.012698094101089    0.046773881194437    0.013935472868078  0.0000
  O2     O2        0.132168460955354    0.469240890943641    0.305421509107288  0.0000
  O3     O3        0.366057461349641    0.504817591164721    0.323117064108857  0.0000
  O2     O2        0.860331899043923    0.479544184050535    0.688216424275247  0.0000
  O2     O2        0.635300632253833    0.515296559423291    0.710904159970777  0.0000
  O2     O2        0.254773119498463    0.264230154041078    0.334617900536014  0.0000
  O3     O3        0.234667515890177    0.722575872292627    0.339312308965727  0.0000
  O2     O2        0.741418372350673    0.262135532334828    0.692023255341974  0.0000
  O2     O2        0.753511668421382    0.731704992019168    0.685570735204707  0.0000
  O3     O3        0.161233399449134    0.211656713281930    0.138120470720499  0.0000
  O3     O3        0.342904132716445    0.777623000507732    0.136993051417276  0.0000
  O2     O2        0.846282517231381    0.238989988651228    0.875675498814864  0.0000
  O2     O2        0.659705198576747    0.768717762412863    0.884799719866602  0.0000
  O2     O2        0.861946341488755    0.722089946706202    0.869163912805295  0.0000
  O2     O2        0.639546143897058    0.264066794475259    0.887501331559973  0.0000
  O2     O2        0.141047797706391    0.729677531129885    0.137002663631112  0.0000
  O2     O2        0.355053283131066    0.266411067702117    0.141163346864499  0.0000
  O2     O2        0.638699137912918    0.523943489428339    0.060282306324498  0.0000
  O2     O2        0.872640192754073    0.477125140461225    0.053123792530141  0.0000
  O2     O2        0.372997841249544    0.523986683297869    0.971143463084025  0.0000
  O3     O3        0.128009061233666    0.480726681415287    0.960002805420911  0.0000
  O2     O2        0.745446109592371    0.277949670144269    0.069804489390359  0.0000
  O2     O2        0.765940028856403    0.722303907925843    0.068072774021169  0.0000
  O3     O3        0.266960707291008    0.280349058550625    0.933129958821495  0.0000
  O2     O2        0.243088081732318    0.705639191229022    0.949097767379836  0.0000
