data_c00167.vasp
_audit_creation_method             Generated by GULP
_audit_author_name                 Salvador R. G. Balestra
_symmetry_space_group_name_H-M     'P 1             '
_symmetry_Int_Tables_number        1

loop_
_symmetry_equiv_pos_site_id
_symmetry_equiv_pos_as_xyz
_cell_length_a                       17.0867
_cell_length_b                        7.6062
_cell_length_c                       10.2449
_cell_angle_alpha                   89.2252
_cell_angle_beta                    91.0411
_cell_angle_gamma                   89.4935

loop_
_atom_site_label
_atom_site_type_symbol
_atom_site_fract_x
_atom_site_fract_y
_atom_site_fract_z
_atom_site_charge
  Ge     Ge        0.556730000000016    0.000000000000000    0.122129999999970  0.0000
  Ge     Ge        0.829983023710152    0.282191554867991    0.718165132676017  0.0000
  Ge     Ge        0.855608663260735    0.663136024019710    0.037631364426406  0.0000
  Si     Si        0.051851673533881    0.996042831215296    0.386719188112243  0.0000
  Si     Si        0.448376414313414    0.001365667821446    0.377915844667016  0.0000
  Si     Si        0.949486309163215    0.998271027256062    0.638699423151754  0.0000
  Si     Si        0.544570622936237    0.019503919050951    0.639511698169336  0.0000
  Si     Si        0.946138081872609    0.980561190674430    0.138418722332735  0.0000
  Si     Si        0.440451765027756    0.001607168144037    0.881064048860574  0.0000
  Si     Si        0.053407214559516    0.005211996823921    0.896203928615685  0.0000
  Si     Si        0.164001071539394    0.287369295365300    0.291501694418125  0.0000
  Si     Si        0.335315093073234    0.714123428492289    0.292819407681363  0.0000
  Si     Si        0.665213242129663    0.729469941560829    0.740861989299571  0.0000
  Si     Si        0.845157043851199    0.695918908008166    0.729018183302530  0.0000
  Si     Si        0.647411993941945    0.324304429451010    0.728981999222660  0.0000
  Si     Si        0.154038368169991    0.691238945928116    0.288760667758535  0.0000
  Si     Si        0.344280308665233    0.310554169871259    0.296286741060334  0.0000
  Si     Si        0.653491692244285    0.318347524306332    0.032965674175074  0.0000
  Si     Si        0.345569436246470    0.314000577008817    0.991616141617950  0.0000
  Si     Si        0.151077321788968    0.689613864351647    0.985446660985371  0.0000
  Si     Si        0.332525968872580    0.714557692638301    0.988337526372369  0.0000
  Si     Si        0.164898007797390    0.289801621868623    0.986403940037536  0.0000
  Si     Si        0.673719598896177    0.712154535780550    0.045793536707720  0.0000
  Si     Si        0.833618289390626    0.258631662964799    0.026680297372015  0.0000
  O2     O2        0.112841293925731    0.156036298658357    0.377360983075589  0.0000
  O2     O2        0.385179537761744    0.843525892316169    0.383542813662113  0.0000
  O3     O3        0.886882487430612    0.154341190199250    0.619765162776200  0.0000
  O2     O2        0.611157270923819    0.871710274816764    0.665435182539468  0.0000
  O2     O2        0.901488199471408    0.816621547839257    0.641615060168179  0.0000
  O2     O2        0.582459170512483    0.213080948241476    0.649974525390800  0.0000
  O2     O2        0.097506348726570    0.811237983872624    0.373161139742409  0.0000
  O2     O2        0.402632284255473    0.188242686581559    0.382444630690315  0.0000
  O2     O2        0.012558593117616    0.995882087613751    0.526051486992601  0.0000
  O2     O2        0.511159888379060    0.991170285014820    0.494698264309002  0.0000
  O2     O2        0.983762697070876    0.020595600440777    0.278569321990555  0.0000
  O3     O3        0.493243230695279    0.977307499222371    0.245380745360798  0.0000
  O2     O2        0.997631923841204    0.030261896103037    0.772163774718565  0.0000
  O2     O2        0.471016131353872    0.001711870923977    0.734134392678416  0.0000
  O3     O3        0.596970981592513    0.206919705172076    0.121655769821335  0.0000
  O3     O3        0.922379056973766    0.778455311651226    0.130095075723868  0.0000
  O2     O2        0.404552266741684    0.193735123491854    0.912033885654161  0.0000
  O2     O2        0.094086187928620    0.811905795789772    0.896221998492390  0.0000
  O2     O2        0.374527784878351    0.852658287011328    0.895229999027821  0.0000
  O2     O2        0.119685736124835    0.154937037417539    0.894326961296518  0.0000
  O3     O3        0.631270783297788    0.846798032877184    0.137566424169756  0.0000
  O2     O2        0.869076556329907    0.103385990118224    0.118742294230532  0.0000
  O3     O3        0.511710057369453    0.953380171769400    0.975760149222653  0.0000
  O2     O2        0.005578355843007    0.035384234477619    0.026258661847137  0.0000
  O2     O2        0.137095618383782    0.487005776647400    0.319589171034680  0.0000
  O2     O2        0.361907345166059    0.513909946879139    0.325135844831975  0.0000
  O3     O3        0.863599856997843    0.494033689912627    0.704269767553757  0.0000
  O2     O2        0.631731272574592    0.534295783676021    0.714656156921216  0.0000
  O2     O2        0.255196859246372    0.264340919712094    0.331257186881751  0.0000
  O2     O2        0.243743913703734    0.737040588301380    0.323347203442275  0.0000
  O3     O3        0.732045604195705    0.279334594625686    0.673876583313771  0.0000
  O2     O2        0.754111727036010    0.739310559207037    0.689965304057534  0.0000
  O2     O2        0.153183456655152    0.243598557099854    0.138808323475483  0.0000
  O2     O2        0.348498242574825    0.759701806509093    0.140094139240906  0.0000
  O3     O3        0.837345623968032    0.204185786088536    0.876684655757806  0.0000
  O2     O2        0.668626445692226    0.774626615710066    0.893837579151970  0.0000
  O3     O3        0.861522614424943    0.740397990283895    0.879238719023173  0.0000
  O2     O2        0.641408051977037    0.267162107827655    0.880988881941250  0.0000
  O2     O2        0.135624875573109    0.732781452784035    0.136509868158074  0.0000
  O2     O2        0.359549416049954    0.270859570432944    0.144561134195776  0.0000
  O2     O2        0.632705941128630    0.521766256522576    0.055674029643970  0.0000
  O3     O3        0.878240086788004    0.441811454748763    0.045692033401876  0.0000
  O2     O2        0.364177556123463    0.517828581671348    0.961126116426487  0.0000
  O2     O2        0.132355908744386    0.486635251653159    0.956128955428757  0.0000
  O2     O2        0.744233544210640    0.284474961064218    0.070403854558153  0.0000
  O3     O3        0.762825904160745    0.697435904758658    0.093456350123070  0.0000
  O2     O2        0.256077358848966    0.274763878232208    0.951953126313350  0.0000
  O2     O2        0.240780940724233    0.728626923023282    0.953973442742329  0.0000
