data_c00119.vasp
_audit_creation_method             Generated by GULP
_audit_author_name                 Salvador R. G. Balestra
_symmetry_space_group_name_H-M     'P 1             '
_symmetry_Int_Tables_number        1

loop_
_symmetry_equiv_pos_site_id
_symmetry_equiv_pos_as_xyz
_cell_length_a                       17.0861
_cell_length_b                        7.5946
_cell_length_c                       10.3210
_cell_angle_alpha                   89.6013
_cell_angle_beta                    90.2217
_cell_angle_gamma                   90.7026

loop_
_atom_site_label
_atom_site_type_symbol
_atom_site_fract_x
_atom_site_fract_y
_atom_site_fract_z
_atom_site_charge
  Ge     Ge        0.052090000000021    0.000000000000000    0.372269999999958  0.0000
  Ge     Ge        0.353833187978007    0.354145159950480    0.972793675495138  0.0000
  Ge     Ge        0.329981227775067    0.765570322422616    0.981818507260519  0.0000
  Si     Si        0.452155188635354    0.024423802206117    0.372819570041504  0.0000
  Si     Si        0.952055192679111    0.014007962549451    0.636309364006160  0.0000
  Si     Si        0.553013493620414    0.017026196316701    0.630297892398379  0.0000
  Si     Si        0.549847728484021    0.010866779840804    0.116238345961831  0.0000
  Si     Si        0.941236091190586    0.020570597684931    0.116928149975846  0.0000
  Si     Si        0.443010402645770    0.040866357504998    0.872571563308707  0.0000
  Si     Si        0.054469347043541    0.011659810040696    0.884823688283214  0.0000
  Si     Si        0.174258715822452    0.287313419302624    0.285957704598769  0.0000
  Si     Si        0.334817351355359    0.739826973401088    0.288500673155457  0.0000
  Si     Si        0.837214220041969    0.304182108724087    0.732195405001867  0.0000
  Si     Si        0.665449200495738    0.727159499737596    0.720609357643308  0.0000
  Si     Si        0.845675441324482    0.708607884145613    0.729017384390468  0.0000
  Si     Si        0.657719633122768    0.321962308841286    0.721228560042663  0.0000
  Si     Si        0.155663592507865    0.689477677688948    0.294619147550934  0.0000
  Si     Si        0.353953712979075    0.332865353081788    0.278330177618475  0.0000
  Si     Si        0.649907215736408    0.325237453739958    0.023262780934638  0.0000
  Si     Si        0.842691504033434    0.706210984143971    0.031412271132723  0.0000
  Si     Si        0.147452359615694    0.698377708757876    0.992448283345657  0.0000
  Si     Si        0.168712302830940    0.300262124960761    0.984081645094130  0.0000
  Si     Si        0.662005267681964    0.726460931046429    0.022354179419900  0.0000
  Si     Si        0.829748749412232    0.306625914262399    0.035370704887137  0.0000
  O3     O3        0.128304126354527    0.151609129386773    0.374958496514483  0.0000
  O2     O2        0.386060546615698    0.870393166191409    0.378438554426606  0.0000
  O2     O2        0.892648454127887    0.174532800134595    0.655415458164294  0.0000
  O2     O2        0.613795650562511    0.856219366561767    0.632823938548599  0.0000
  O2     O2        0.904842275972592    0.829223257381368    0.647127718341111  0.0000
  O2     O2        0.600541177898670    0.201319197044505    0.635570586720308  0.0000
  O3     O3        0.094589190623626    0.794819599923978    0.379307154151237  0.0000
  O2     O2        0.412771088221602    0.216730257017720    0.365808800934190  0.0000
  O3     O3        0.987582394607768    0.029752517793481    0.495538017566825  0.0000
  O2     O2        0.503582500273152    0.011524909452516    0.500667665912748  0.0000
  O3     O3        0.000050098271524    0.037650331519287    0.232940293502455  0.0000
  O2     O2        0.509659572912859    0.992767202156207    0.253774425094953  0.0000
  O2     O2        0.023447764845774    0.020157096953199    0.738297030798780  0.0000
  O2     O2        0.493488775867660    0.995996550969866    0.748636574592469  0.0000
  O2     O2        0.589153457906823    0.204671907631631    0.102556219187613  0.0000
  O2     O2        0.898747871010094    0.828550593849463    0.118301529164665  0.0000
  O3     O3        0.419499031396145    0.243220269508168    0.876964201862877  0.0000
  O2     O2        0.084855096816321    0.815101384865376    0.914647302891544  0.0000
  O3     O3        0.363053628260851    0.928601582409646    0.879367252086686  0.0000
  O2     O2        0.123486495474262    0.156494920488760    0.897825468692920  0.0000
  O2     O2        0.615432578998524    0.861474747847210    0.109590466342215  0.0000
  O2     O2        0.875078477464489    0.170278269328311    0.126182626533081  0.0000
  O2     O2        0.487300961968962    0.975238756920037    0.003233462966837  0.0000
  O2     O2        0.985200405581987    0.057251657125199    0.981956964797958  0.0000
  O2     O2        0.140013094336730    0.481606908488556    0.310221234146181  0.0000
  O2     O2        0.369711630934411    0.542342847135314    0.294462572685374  0.0000
  O2     O2        0.863800019868264    0.504715603317889    0.701336537527885  0.0000
  O2     O2        0.640002812877078    0.526045903881950    0.691699544034187  0.0000
  O2     O2        0.265820063853361    0.286770888432678    0.323021044421027  0.0000
  O2     O2        0.244899853219856    0.736177500418091    0.336819785016014  0.0000
  O2     O2        0.747272322646954    0.277524191698780    0.686955678975378  0.0000
  O2     O2        0.756911456440356    0.753211688971045    0.687371004118365  0.0000
  O2     O2        0.166392527923359    0.237383235440381    0.134177741705289  0.0000
  O3     O3        0.337502883396958    0.815794844492238    0.143994335133650  0.0000
  O2     O2        0.842327013909029    0.263191824888081    0.884697475728077  0.0000
  O2     O2        0.651917817434683    0.773785730683100    0.870877841296975  0.0000
  O2     O2        0.858136243711030    0.749135882264876    0.880607696571409  0.0000
  O2     O2        0.640790862951859    0.278698907975415    0.871804233693182  0.0000
  O2     O2        0.143180267080118    0.747720142158481    0.144606343075273  0.0000
  O3     O3        0.367285189246084    0.281549475581185    0.130626200177826  0.0000
  O2     O2        0.629380062122475    0.528733460954778    0.048040322736569  0.0000
  O2     O2        0.861450968618541    0.503562590259133    0.064507216604078  0.0000
  O1     O1        0.376024013849593    0.570625098783793    0.954191971627719  0.0000
  O2     O2        0.127648385620228    0.491244206722686    0.971341280259727  0.0000
  O2     O2        0.738168714263652    0.289261495843903    0.069540620019883  0.0000
  O2     O2        0.752430100040730    0.742721140796220    0.063485751927098  0.0000
  O3     O3        0.256677458573978    0.314022873870132    0.934155491065139  0.0000
  O3     O3        0.232938342981146    0.737877549845649    0.939922434498774  0.0000
