data_c00177.vasp
_audit_creation_method             Generated by GULP
_audit_author_name                 Salvador R. G. Balestra
_symmetry_space_group_name_H-M     'P 1             '
_symmetry_Int_Tables_number        1

loop_
_symmetry_equiv_pos_site_id
_symmetry_equiv_pos_as_xyz
_cell_length_a                       17.0512
_cell_length_b                        7.6110
_cell_length_c                       10.3131
_cell_angle_alpha                   90.2574
_cell_angle_beta                    90.2112
_cell_angle_gamma                   90.1723

loop_
_atom_site_label
_atom_site_type_symbol
_atom_site_fract_x
_atom_site_fract_y
_atom_site_fract_z
_atom_site_charge
  Ge     Ge        0.556730000000016    0.000000000000000    0.122129999999970  0.0000
  Ge     Ge        0.655061845635364    0.682526375982624    0.704288126416272  0.0000
  Ge     Ge        0.333669861848206    0.290644156435487    0.965694252480915  0.0000
  Si     Si        0.049748464478209    0.013229219384000    0.357060588294836  0.0000
  Si     Si        0.448925199862380    0.004913420253469    0.374536994420736  0.0000
  Si     Si        0.955358384604152    0.007128589941017    0.620934992660974  0.0000
  Si     Si        0.550494845314500    0.987678664433077    0.625942679712336  0.0000
  Si     Si        0.943911231570628    0.008160275701204    0.106100295913321  0.0000
  Si     Si        0.445969979450152    0.006831065910472    0.877338884009497  0.0000
  Si     Si        0.058354111841293    0.013219135118113    0.872287449998174  0.0000
  Si     Si        0.154483082585106    0.322173038776864    0.272312461329350  0.0000
  Si     Si        0.346535614295175    0.698467127014865    0.276222906069548  0.0000
  Si     Si        0.850407266666748    0.311260556363524    0.712223320130574  0.0000
  Si     Si        0.838345742732375    0.714867646987414    0.706740597313338  0.0000
  Si     Si        0.668739058393134    0.270072755475383    0.713258055947780  0.0000
  Si     Si        0.165638842731576    0.724897341212693    0.274340011323220  0.0000
  Si     Si        0.333976673672388    0.290939945045113    0.274009438957260  0.0000
  Si     Si        0.671359477765758    0.281938586748566    0.013519668846672  0.0000
  Si     Si        0.832311591674256    0.720602375610962    0.011835190140650  0.0000
  Si     Si        0.168381838279827    0.727778620529758    0.972377318020388  0.0000
  Si     Si        0.351087656706302    0.694200336544051    0.976070966846835  0.0000
  Si     Si        0.150841786389918    0.331992340573133    0.967186155474571  0.0000
  Si     Si        0.651442722740573    0.683412970690117    0.010765438055031  0.0000
  Si     Si        0.852619665221533    0.325172480027246    0.013164503938083  0.0000
  O2     O2        0.093599320504237    0.201139251531171    0.349640762070647  0.0000
  O2     O2        0.404621038794806    0.816564982641709    0.363034481478209  0.0000
  O2     O2        0.907810423241342    0.189356335254755    0.628934841729957  0.0000
  O3     O3        0.589950767648769    0.799148125837904    0.609915052841812  0.0000
  O2     O2        0.895442438927756    0.844102582666386    0.629276595224952  0.0000
  O2     O2        0.621395341765236    0.130104834345259    0.625896619184040  0.0000
  O2     O2        0.114493597914215    0.859009037277891    0.358475454087638  0.0000
  O2     O2        0.386795781922124    0.162673999564505    0.360458312509967  0.0000
  O2     O2        0.999549792849697    0.001860686996730    0.485791004267141  0.0000
  O2     O2        0.486741585678122    0.023791462931761    0.516076778533476  0.0000
  O2     O2        0.990796729058530    0.985598343317257    0.238023962797923  0.0000
  O3     O3        0.519640181798119    0.017516378738261    0.275125977559673  0.0000
  O2     O2        0.020609964916851    0.992709902085273    0.732069760453368  0.0000
  O2     O2        0.506808825437276    0.002885973199952    0.762354627675718  0.0000
  O3     O3        0.632830993309428    0.149523799584746    0.111407956583838  0.0000
  O2     O2        0.873733026361296    0.866456074495555    0.101120494394017  0.0000
  O3     O3        0.378614575201154    0.150162469421576    0.859528953105168  0.0000
  O2     O2        0.130072053630310    0.875960278532886    0.882978148930837  0.0000
  O2     O2        0.406702426736332    0.814365505073133    0.889176788846978  0.0000
  O2     O2        0.088546755083168    0.212931445531339    0.889550559893187  0.0000
  O3     O3        0.591842481277554    0.789494187090638    0.099522653938918  0.0000
  O2     O2        0.909714575876925    0.205910827766612    0.100131419915808  0.0000
  O3     O3        0.487865162096456    0.062706298413467    0.010665248095250  0.0000
  O2     O2        0.997599262142794    0.963480494909379    0.983637655112695  0.0000
  O2     O2        0.136240970340209    0.526512658944494    0.301130756322472  0.0000
  O2     O2        0.363503675347084    0.491760749099228    0.294978688740577  0.0000
  O2     O2        0.867250848133392    0.515067959469457    0.682399485478478  0.0000
  O3     O3        0.636034312214283    0.462077943821341    0.685235035650159  0.0000
  O2     O2        0.243028695364490    0.277116607318290    0.316827316448927  0.0000
  O2     O2        0.256964419599813    0.741737173210125    0.314011463788091  0.0000
  O2     O2        0.760683548976011    0.264366582915322    0.676250404014081  0.0000
  O3     O3        0.749913177927974    0.731165855664849    0.657788054582239  0.0000
  O2     O2        0.146341504579657    0.284152714516094    0.119339593637968  0.0000
  O2     O2        0.363340522226985    0.748817118088563    0.126923037462302  0.0000
  O2     O2        0.866994558723517    0.273368189791897    0.863410374353843  0.0000
  O3     O3        0.639708342431131    0.743740967285829    0.863384013508803  0.0000
  O2     O2        0.839868575674486    0.763459725324640    0.859524843671104  0.0000
  O2     O2        0.659516497066941    0.218742304848580    0.864564748107316  0.0000
  O2     O2        0.156719499828425    0.775239788549982    0.123433513850158  0.0000
  O3     O3        0.341474381382942    0.230222454839430    0.126256840420675  0.0000
  O2     O2        0.633933072123938    0.476115244424387    0.025651420161471  0.0000
  O2     O2        0.871403389278065    0.530287619788640    0.039159980360734  0.0000
  O3     O3        0.375254647034045    0.496486526816071    0.951358409602448  0.0000
  O2     O2        0.129945059567607    0.536877811866441    0.943904495845934  0.0000
  O2     O2        0.763028761726360    0.288466141891730    0.049269902403854  0.0000
  O2     O2        0.741523908566004    0.721300426820927    0.051903406620550  0.0000
  O3     O3        0.237179889970789    0.294208752322552    0.917555191946864  0.0000
  O2     O2        0.260147488245937    0.721633261418493    0.938634192973725  0.0000
