data_c00114.vasp
_audit_creation_method             Generated by GULP
_audit_author_name                 Salvador R. G. Balestra
_symmetry_space_group_name_H-M     'P 1             '
_symmetry_Int_Tables_number        1

loop_
_symmetry_equiv_pos_site_id
_symmetry_equiv_pos_as_xyz
_cell_length_a                       17.2047
_cell_length_b                        7.6085
_cell_length_c                       10.1880
_cell_angle_alpha                   90.3180
_cell_angle_beta                    91.0061
_cell_angle_gamma                   90.2721

loop_
_atom_site_label
_atom_site_type_symbol
_atom_site_fract_x
_atom_site_fract_y
_atom_site_fract_z
_atom_site_charge
  Ge     Ge        0.052090000000021    0.000000000000000    0.372269999999958  0.0000
  Ge     Ge        0.846499631672255    0.680029980527908    0.039842554227338  0.0000
  Ge     Ge        0.147065816663857    0.669820196054300    0.976319883778115  0.0000
  Si     Si        0.451358320358886    0.011085291651260    0.377038272287174  0.0000
  Si     Si        0.943699180121203    0.998557649711367    0.625088671897813  0.0000
  Si     Si        0.546691844718841    0.002988472236278    0.642135718061849  0.0000
  Si     Si        0.554530736424588    0.000316596736886    0.130500542665340  0.0000
  Si     Si        0.945327714464038    0.996189138683447    0.115443373776151  0.0000
  Si     Si        0.439238153577688    0.994119812995518    0.891230644475580  0.0000
  Si     Si        0.050709373887325    0.980844655669801    0.871128973527420  0.0000
  Si     Si        0.170318901718193    0.283153759537271    0.293946657962400  0.0000
  Si     Si        0.334810036059139    0.718530795565082    0.276557370755732  0.0000
  Si     Si        0.830603161983475    0.289270346451489    0.722285659977783  0.0000
  Si     Si        0.662282680973786    0.713693201743459    0.726219509847568  0.0000
  Si     Si        0.841034715092894    0.694820513097057    0.726707556939138  0.0000
  Si     Si        0.652417969892455    0.309579784355434    0.719646744311169  0.0000
  Si     Si        0.156491723792829    0.691296642197187    0.285993593467393  0.0000
  Si     Si        0.349183272170258    0.316468800738828    0.286540064489000  0.0000
  Si     Si        0.651333118419995    0.310002671649363    0.025635287151240  0.0000
  Si     Si        0.342549385328669    0.305045977046543    0.981343421455752  0.0000
  Si     Si        0.328988662159476    0.700812798087540    0.967734123531703  0.0000
  Si     Si        0.162429076415952    0.262209097096217    0.990451419260765  0.0000
  Si     Si        0.663846395783423    0.708485045162385    0.034105689933482  0.0000
  Si     Si        0.830271705332188    0.276788375581623    0.030159151695698  0.0000
  O3     O3        0.122001047651086    0.163807000740036    0.390722645947264  0.0000
  O2     O2        0.387864713953947    0.858456735471092    0.353308895888270  0.0000
  O2     O2        0.884018630985837    0.159829766578596    0.639552105131020  0.0000
  O2     O2        0.608929375736929    0.845125315264510    0.642503381632822  0.0000
  O2     O2        0.898517844209733    0.814049314100867    0.641846403187243  0.0000
  O2     O2        0.592928566273903    0.188251321527455    0.635901608507640  0.0000
  O3     O3        0.099326780697796    0.800364917074663    0.376713243140111  0.0000
  O2     O2        0.409301449222361    0.200400402698948    0.370924721747464  0.0000
  O3     O3        0.978581503500440    0.005150216166300    0.482536953870226  0.0000
  O2     O2        0.488819907151474    0.985499541144279    0.519488208704443  0.0000
  O3     O3        0.006189716758104    0.047743666084449    0.225383806830140  0.0000
  O2     O2        0.520698265879671    0.998781046660054    0.274989393657365  0.0000
  O2     O2        0.016952379896351    0.016963677785708    0.725911543802288  0.0000
  O2     O2        0.495513520737172    0.989520081245716    0.770395178434567  0.0000
  O2     O2        0.594956415247407    0.188532596239652    0.108733336329455  0.0000
  O3     O3        0.912368364549023    0.799906294479381    0.132900616355186  0.0000
  O2     O2        0.394446964196274    0.179593577491409    0.892221690853049  0.0000
  O3     O3        0.081136060523737    0.782837131048512    0.880689767227921  0.0000
  O2     O2        0.377352383576619    0.835050815036402    0.879654344974711  0.0000
  O2     O2        0.123591320108321    0.110216779476645    0.901606460167409  0.0000
  O2     O2        0.616166081327902    0.843802228528302    0.121204513284662  0.0000
  O2     O2        0.870209145561892    0.123426309299084    0.113504637945177  0.0000
  O2     O2        0.486290343772888    0.965893303284620    0.025749835096611  0.0000
  O2     O2        0.983564872278067    0.018010615789585    0.973539068950262  0.0000
  O2     O2        0.141691614169886    0.483904726216738    0.303315674406563  0.0000
  O2     O2        0.366485070589103    0.523194179079707    0.308347762891056  0.0000
  O2     O2        0.858799487835330    0.489322832912150    0.699494457993889  0.0000
  O2     O2        0.633898579371984    0.514523119543777    0.696256838846945  0.0000
  O2     O2        0.261728973979539    0.273283790755917    0.330571719404878  0.0000
  O2     O2        0.246208653795498    0.737314833949814    0.323655324502115  0.0000
  O2     O2        0.740532879570012    0.268573505395913    0.676761969708353  0.0000
  O2     O2        0.751820573363718    0.736040126507184    0.685071404872565  0.0000
  O2     O2        0.157135735951268    0.213111258001490    0.144416990076357  0.0000
  O2     O2        0.334821775130584    0.754377431467705    0.121235083940826  0.0000
  O2     O2        0.837473709223238    0.240937192179631    0.874922623467496  0.0000
  O2     O2        0.657294705206574    0.759139831305023    0.880533557083608  0.0000
  O3     O3        0.856340632318444    0.739534933074848    0.877798795287268  0.0000
  O2     O2        0.641402774961765    0.262207201896755    0.872184306487501  0.0000
  O3     O3        0.138158582982959    0.743531553441313    0.135996142725204  0.0000
  O2     O2        0.359787459633003    0.265075044139739    0.134200260096178  0.0000
  O2     O2        0.629159763446939    0.512177375671505    0.052481737987182  0.0000
  O3     O3        0.869315022242867    0.462511758265492    0.064070539803996  0.0000
  O2     O2        0.364067180189545    0.505730130263419    0.947963978172951  0.0000
  O3     O3        0.123318743610680    0.449219826339228    0.964950284445376  0.0000
  O2     O2        0.740239887626407    0.279495758008860    0.070075124171075  0.0000
  O3     O3        0.751902477436595    0.716188527080348    0.083718418044276  0.0000
  O2     O2        0.252063019238610    0.273061743598082    0.948900375644241  0.0000
  O3     O3        0.240086440288158    0.704038212276716    0.922074236021269  0.0000
