data_c00182.vasp
_audit_creation_method             Generated by GULP
_audit_author_name                 Salvador R. G. Balestra
_symmetry_space_group_name_H-M     'P 1             '
_symmetry_Int_Tables_number        1

loop_
_symmetry_equiv_pos_site_id
_symmetry_equiv_pos_as_xyz
_cell_length_a                       17.0459
_cell_length_b                        7.5767
_cell_length_c                       10.3071
_cell_angle_alpha                   90.8809
_cell_angle_beta                    90.6811
_cell_angle_gamma                   90.9350

loop_
_atom_site_label
_atom_site_type_symbol
_atom_site_fract_x
_atom_site_fract_y
_atom_site_fract_z
_atom_site_charge
  Ge     Ge        0.556730000000016    0.000000000000000    0.122129999999970  0.0000
  Ge     Ge        0.646391712402034    0.668329728848683    0.719729118384899  0.0000
  Ge     Ge        0.856879662479924    0.342925849559970    0.031109322053002  0.0000
  Si     Si        0.045838565587824    0.998677474421343    0.370267395785346  0.0000
  Si     Si        0.446012957678980    0.002808358067969    0.375981488651371  0.0000
  Si     Si        0.948533669841670    0.998305049539114    0.630334696310298  0.0000
  Si     Si        0.542832436591782    0.973578110300630    0.633527253853563  0.0000
  Si     Si        0.945775343273064    0.021069011284620    0.117699173836983  0.0000
  Si     Si        0.442677206351992    0.001028463156589    0.881672364264567  0.0000
  Si     Si        0.056546845233654    0.996011087245396    0.879951347646189  0.0000
  Si     Si        0.149828422872817    0.306992358736267    0.279980612048262  0.0000
  Si     Si        0.342354610950625    0.690529353857106    0.293968050372253  0.0000
  Si     Si        0.846416368895856    0.304353624774411    0.723863470457512  0.0000
  Si     Si        0.829289681534116    0.709659786948537    0.710713850144731  0.0000
  Si     Si        0.667022143835969    0.255424551043797    0.737978164953562  0.0000
  Si     Si        0.161901463388124    0.713542645284096    0.283993925695482  0.0000
  Si     Si        0.331437836220865    0.285034949216213    0.288333809722324  0.0000
  Si     Si        0.674704583911365    0.285011525117824    0.040190659622863  0.0000
  Si     Si        0.829773257666551    0.741936770822902    0.015553679835657  0.0000
  Si     Si        0.333137911928613    0.285735623838459    0.986079824538466  0.0000
  Si     Si        0.166527219509135    0.714002720173788    0.981318279671347  0.0000
  Si     Si        0.347407784474475    0.687050269649812    0.991430655557101  0.0000
  Si     Si        0.151391364658574    0.312608345505018    0.979151524221151  0.0000
  Si     Si        0.649265398887366    0.680962950161443    0.025503726905574  0.0000
  O2     O2        0.090961599046320    0.187331107162623    0.362291086341797  0.0000
  O2     O2        0.401403471960399    0.812388704650227    0.380150486335320  0.0000
  O2     O2        0.904442031228410    0.184533799944119    0.638754203033232  0.0000
  O3     O3        0.576746176394324    0.778169069348752    0.630189730634329  0.0000
  O2     O2        0.884653362481913    0.839028532917206    0.628872617258732  0.0000
  O2     O2        0.617405388057053    0.101655533512322    0.665183105761945  0.0000
  O2     O2        0.109544974639940    0.843583308395928    0.368937017789752  0.0000
  O2     O2        0.380710721762391    0.155798551604390    0.378429814390302  0.0000
  O2     O2        0.997338197296532    0.991430023383913    0.500117800427196  0.0000
  O2     O2        0.505558076461309    0.023179694601540    0.495921861793289  0.0000
  O2     O2        0.984918094593470    0.967821660981738    0.252465231136561  0.0000
  O3     O3        0.495096277554431    0.026781364258266    0.247902950688747  0.0000
  O2     O2        0.010250173502250    0.972881638562110    0.746458111867845  0.0000
  O2     O2        0.473213376254507    0.996638356781674    0.735862461541308  0.0000
  O3     O3        0.633274684883585    0.151362011286482    0.134937177849074  0.0000
  O2     O2        0.864639447705842    0.910335779780162    0.094618670006676  0.0000
  O2     O2        0.375190399100650    0.147088287006473    0.893409385774226  0.0000
  O2     O2        0.123675256252001    0.848981783435384    0.887685278697171  0.0000
  O2     O2        0.408458725120045    0.806615273900141    0.914490481559824  0.0000
  O2     O2        0.095822521510871    0.191748859621504    0.886820299013733  0.0000
  O3     O3        0.593484128250486    0.789351494157284    0.119110166369462  0.0000
  O3     O3        0.925210018064159    0.225922114328895    0.118170245535376  0.0000
  O3     O3        0.511668545212395    0.055547948044701    0.978571793305974  0.0000
  O2     O2        0.000612609724171    0.963102933324308    0.000111801915826  0.0000
  O2     O2        0.134117329695994    0.512586872749776    0.309210163863405  0.0000
  O2     O2        0.358250384606131    0.485952605616824    0.322147180306543  0.0000
  O2     O2        0.861754353573077    0.510987808644175    0.695816343496138  0.0000
  O3     O3        0.629569011868443    0.443115761675542    0.709968833772225  0.0000
  O2     O2        0.239228158854943    0.260449485058678    0.316609193779219  0.0000
  O2     O2        0.252799128770229    0.737250454232925    0.326806438769412  0.0000
  O2     O2        0.756281243130360    0.254424201795803    0.686011142177791  0.0000
  O3     O3        0.739806243213458    0.713355890027292    0.663297086347053  0.0000
  O2     O2        0.133337458846916    0.264781937217617    0.128050268647108  0.0000
  O2     O2        0.359472261298606    0.730929068977722    0.143719091826850  0.0000
  O3     O3        0.864431248629350    0.267332710201346    0.873028561653919  0.0000
  O3     O3        0.633758007504163    0.738652969803299    0.878229932664187  0.0000
  O2     O2        0.830827488349646    0.772347242233348    0.861044386075678  0.0000
  O2     O2        0.671789916997631    0.214414834982798    0.890936972954139  0.0000
  O2     O2        0.153393325857740    0.761343472507140    0.132509718691721  0.0000
  O2     O2        0.346717307966835    0.239243770698318    0.137056141291813  0.0000
  O2     O2        0.631333456847458    0.473799575376862    0.043276381999071  0.0000
  O3     O3        0.877437039872932    0.566155510574311    0.045516748033494  0.0000
  O2     O2        0.366482168423197    0.482967006551585    0.961128544176555  0.0000
  O2     O2        0.133097257784563    0.516508861732118    0.951957636739794  0.0000
  O3     O3        0.763693986898589    0.308543238119997    0.087182059407935  0.0000
  O2     O2        0.740537332720284    0.719426910021340    0.060844381930249  0.0000
  O2     O2        0.241590538976055    0.274720417242363    0.949976167079476  0.0000
  O2     O2        0.258497909007050    0.726795088074135    0.949327916300916  0.0000
