data_c00126.vasp
_audit_creation_method             Generated by GULP
_audit_author_name                 Salvador R. G. Balestra
_symmetry_space_group_name_H-M     'P 1             '
_symmetry_Int_Tables_number        1

loop_
_symmetry_equiv_pos_site_id
_symmetry_equiv_pos_as_xyz
_cell_length_a                       16.8458
_cell_length_b                        7.5695
_cell_length_c                       10.4760
_cell_angle_alpha                   89.9145
_cell_angle_beta                    89.9898
_cell_angle_gamma                   90.2688

loop_
_atom_site_label
_atom_site_type_symbol
_atom_site_fract_x
_atom_site_fract_y
_atom_site_fract_z
_atom_site_charge
  Ge     Ge        0.556730000000016    0.000000000000000    0.122129999999970  0.0000
  Ge     Ge        0.945586145259228    0.018115654104867    0.128125060058268  0.0000
  Ge     Ge        0.335602991375664    0.286016067983202    0.982014191740822  0.0000
  Si     Si        0.053710519097605    0.016549351978135    0.379896993449682  0.0000
  Si     Si        0.456530035091480    0.003885396256353    0.380624844880776  0.0000
  Si     Si        0.959370067653163    0.019668185244048    0.640871380805026  0.0000
  Si     Si        0.556323694978879    0.994825707442506    0.635392241862395  0.0000
  Si     Si        0.447155987783596    0.009172329194234    0.881199615073938  0.0000
  Si     Si        0.059676249318293    0.010478049670484    0.892478505943176  0.0000
  Si     Si        0.156778543537464    0.326992351411745    0.288018919767873  0.0000
  Si     Si        0.354536752131370    0.696976984666514    0.283438640020640  0.0000
  Si     Si        0.857556307900893    0.328431413764214    0.728381934364001  0.0000
  Si     Si        0.656554219524090    0.685474562165879    0.718739928674660  0.0000
  Si     Si        0.838621866330793    0.734295692391381    0.727392192685664  0.0000
  Si     Si        0.674888100342497    0.280869269523768    0.721646246166038  0.0000
  Si     Si        0.171335903104638    0.731960545747762    0.286632470271203  0.0000
  Si     Si        0.338641897003538    0.287043227441875    0.284910990605766  0.0000
  Si     Si        0.675229269923516    0.279222949577977    0.018481596151076  0.0000
  Si     Si        0.828941678545959    0.739952143319933    0.023824155913349  0.0000
  Si     Si        0.172225927643535    0.730799417678626    0.989859866760149  0.0000
  Si     Si        0.357891025061074    0.690776371891255    0.989066042906555  0.0000
  Si     Si        0.149956057572368    0.333861674408080    0.988668593123728  0.0000
  Si     Si        0.646581350370083    0.675870462427834    0.015124203351967  0.0000
  Si     Si        0.858040824372677    0.343025438012198    0.023898282327127  0.0000
  O2     O2        0.094601857632619    0.209344045048049    0.367164945425618  0.0000
  O2     O2        0.413993841365390    0.812016251396690    0.369527487270647  0.0000
  O2     O2        0.918518623084301    0.212371619726628    0.645819635841726  0.0000
  O2     O2        0.597667702279197    0.802498623528158    0.632261436159020  0.0000
  O2     O2        0.890955835110952    0.869618454601115    0.644381245726335  0.0000
  O2     O2        0.624974515046288    0.144795241527176    0.635331425216187  0.0000
  O2     O2        0.121774025325239    0.867147041254864    0.372024696351308  0.0000
  O2     O2        0.390864417077597    0.158476310947910    0.372822843337874  0.0000
  O2     O2        0.009619204632141    0.002474655963215    0.513517785061260  0.0000
  O2     O2        0.499791629604344    0.017119421297505    0.515363295203408  0.0000
  O3     O3        0.988463296286394    0.984597047084363    0.272814264443650  0.0000
  O3     O3        0.522460545172243    0.028405871059709    0.273524983950560  0.0000
  O2     O2        0.020874617979179    0.991744967100659    0.755128719346264  0.0000
  O2     O2        0.502337863453227    0.017060914599995    0.759328338729973  0.0000
  O3     O3        0.639991690879368    0.132665191908893    0.108951161944463  0.0000
  O3     O3        0.862358169628044    0.884370518472354    0.117899153501146  0.0000
  O3     O3        0.374495635409200    0.143318107331698    0.872082701750150  0.0000
  O2     O2        0.136049012790578    0.880740039317072    0.899413618300374  0.0000
  O2     O2        0.413348470814284    0.810486130329822    0.899793525943308  0.0000
  O2     O2        0.085409903508234    0.214603609524206    0.915374593634272  0.0000
  O3     O3        0.582953027588077    0.782444972840379    0.095273676704345  0.0000
  O3     O3        0.917595901990143    0.236484513504156    0.112137449345199  0.0000
  O3     O3        0.491868539481443    0.074702873060904    0.008245887789462  0.0000
  O3     O3        0.002853264210859    0.944928137191261    0.003790510728285  0.0000
  O2     O2        0.140793948567070    0.533219611801225    0.315092475154251  0.0000
  O2     O2        0.369463422883342    0.488607900343524    0.301927345125944  0.0000
  O2     O2        0.871164833591883    0.536446692243818    0.703290496731162  0.0000
  O2     O2        0.643218220959688    0.478026871134452    0.691822400583919  0.0000
  O2     O2        0.246451178689561    0.276987630939395    0.327298840474313  0.0000
  O2     O2        0.264427382074381    0.745734731683910    0.320565154243491  0.0000
  O2     O2        0.768238485164774    0.272476669490299    0.688469601758212  0.0000
  O2     O2        0.746746250869283    0.741167349839486    0.684584353458596  0.0000
  O2     O2        0.143622257061782    0.285744667326830    0.138807601262684  0.0000
  O2     O2        0.372978279862565    0.748819421544306    0.136425271186361  0.0000
  O2     O2        0.874322494189525    0.286612727781824    0.876866284744845  0.0000
  O2     O2        0.636279941870628    0.726682212972015    0.865904918599516  0.0000
  O2     O2        0.843320844986986    0.791251185724464    0.875307428471679  0.0000
  O2     O2        0.663837620280028    0.227740178087577    0.869510349241777  0.0000
  O2     O2        0.159794545866657    0.782455885498205    0.138190272190049  0.0000
  O3     O3        0.345766820293895    0.223494577891348    0.139967056988039  0.0000
  O2     O2        0.632159724001652    0.467944141928830    0.038824584602441  0.0000
  O2     O2        0.871469985142644    0.551001033600787    0.046233988956815  0.0000
  O3     O3        0.380256780639552    0.490733265304452    0.966398111301148  0.0000
  O2     O2        0.130705484982967    0.540662079787889    0.964868309079655  0.0000
  O2     O2        0.767362764845502    0.294302011138999    0.055057541007668  0.0000
  O2     O2        0.735821598047385    0.726061646450617    0.055240477618710  0.0000
  O3     O3        0.237111933828119    0.293880684463597    0.940334103668364  0.0000
  O2     O2        0.265094417776416    0.717735043682365    0.957846479088585  0.0000
