data_c00192.vasp
_audit_creation_method             Generated by GULP
_audit_author_name                 Salvador R. G. Balestra
_symmetry_space_group_name_H-M     'P 1             '
_symmetry_Int_Tables_number        1

loop_
_symmetry_equiv_pos_site_id
_symmetry_equiv_pos_as_xyz
_cell_length_a                       16.9306
_cell_length_b                        7.5861
_cell_length_c                       10.3646
_cell_angle_alpha                   90.1841
_cell_angle_beta                    90.1299
_cell_angle_gamma                   90.2296

loop_
_atom_site_label
_atom_site_type_symbol
_atom_site_fract_x
_atom_site_fract_y
_atom_site_fract_z
_atom_site_charge
  Ge     Ge        0.556730000000016    0.000000000000000    0.122129999999970  0.0000
  Ge     Ge        0.828351560211562    0.740199266040683    0.021132146088550  0.0000
  Ge     Ge        0.349309564081735    0.683684266145977    0.969111763688894  0.0000
  Si     Si        0.050143921498396    0.020472683450011    0.369568182946330  0.0000
  Si     Si        0.451601649765774    0.008530649911383    0.374774220109401  0.0000
  Si     Si        0.949750822483020    0.020264207790432    0.626420504852531  0.0000
  Si     Si        0.548727355898238    0.004576030027503    0.634273256034324  0.0000
  Si     Si        0.940350515578144    0.022653205135872    0.122006462606193  0.0000
  Si     Si        0.443916555827876    0.005119213565736    0.881790877317474  0.0000
  Si     Si        0.049211373515123    0.001890464089081    0.883747352010233  0.0000
  Si     Si        0.153702340873186    0.324934344000895    0.284681271183164  0.0000
  Si     Si        0.347558284985602    0.703329127348489    0.274574340378214  0.0000
  Si     Si        0.849734606908537    0.330562212466228    0.713594496979383  0.0000
  Si     Si        0.650800125185256    0.691959202171719    0.717621309026478  0.0000
  Si     Si        0.831259548931261    0.736713554224295    0.714140322562260  0.0000
  Si     Si        0.667907275180351    0.288154285209154    0.713558846753712  0.0000
  Si     Si        0.165811890959876    0.729334257318714    0.276008369590019  0.0000
  Si     Si        0.335090432221078    0.295329135262903    0.277643154574663  0.0000
  Si     Si        0.672255990929687    0.280690293855998    0.012864832838495  0.0000
  Si     Si        0.329066585486574    0.278080801660171    0.976548537580280  0.0000
  Si     Si        0.163406064550902    0.716273502225150    0.973590523718127  0.0000
  Si     Si        0.146528738507125    0.317742249974991    0.984878328703192  0.0000
  Si     Si        0.645055225797418    0.674480253898805    0.019909864476945  0.0000
  Si     Si        0.855367091485565    0.340528293000902    0.012096762277464  0.0000
  O2     O2        0.096153760922330    0.207427044417740    0.372617303853831  0.0000
  O2     O2        0.407411329703638    0.820769554693226    0.359378291776672  0.0000
  O2     O2        0.908808722079984    0.212931710469753    0.627919607386819  0.0000
  O2     O2        0.588319853329368    0.811066847646068    0.640199845999268  0.0000
  O2     O2        0.882080815768725    0.869770653342694    0.626629576243102  0.0000
  O2     O2        0.617758621681435    0.152311049463939    0.626305520496947  0.0000
  O2     O2        0.113775823151330    0.863799798252450    0.358571845406504  0.0000
  O2     O2        0.388573583681841    0.166851829555102    0.362782469679141  0.0000
  O2     O2        0.001032471019313    0.999198467223958    0.498909658694136  0.0000
  O2     O2        0.491045735179113    0.016020647726488    0.514012859404305  0.0000
  O2     O2        0.990194725405659    0.010610232548194    0.251024039975711  0.0000
  O3     O3        0.521797153489019    0.031595694688708    0.274211421110228  0.0000
  O2     O2        0.007936618648884    0.994517435946194    0.746307450031797  0.0000
  O2     O2        0.495365002609038    0.046711529167899    0.757467945470996  0.0000
  O3     O3        0.640293116279413    0.129498899347449    0.103090732550080  0.0000
  O3     O3        0.866323674611679    0.892998194227650    0.126924504251162  0.0000
  O2     O2        0.364391930549533    0.124320119815218    0.887633859884877  0.0000
  O2     O2        0.116278685947536    0.852876883930504    0.885621290365693  0.0000
  O3     O3        0.416583358438394    0.802865217116579    0.880682033669038  0.0000
  O2     O2        0.087141611199400    0.195422472784389    0.904244284981330  0.0000
  O3     O3        0.579942596221548    0.780541706723944    0.097767675222633  0.0000
  O2     O2        0.911715474456031    0.222889067810807    0.101417370050499  0.0000
  O3     O3        0.490376225040812    0.066617529738720    0.008282195584031  0.0000
  O2     O2        0.988645931130442    0.953802659645214    0.997335459170101  0.0000
  O2     O2        0.136210473880721    0.531223140909209    0.306780136166578  0.0000
  O2     O2        0.364938071934058    0.496236836982839    0.295866723503023  0.0000
  O2     O2        0.864474097305730    0.538645973569464    0.693173023270449  0.0000
  O2     O2        0.634515498931869    0.485186457506484    0.690752835059288  0.0000
  O2     O2        0.244083205132358    0.281599491132886    0.322040543928555  0.0000
  O2     O2        0.257690757568927    0.747837361062211    0.315223974474443  0.0000
  O2     O2        0.759901990256255    0.281888576231893    0.674037076881607  0.0000
  O2     O2        0.739203484824050    0.741517044074233    0.671928813535175  0.0000
  O2     O2        0.136943875892155    0.273088132507884    0.136013551780323  0.0000
  O3     O3        0.363258648141671    0.751541964682774    0.127007171599358  0.0000
  O2     O2        0.867002865994616    0.283727417481948    0.862651164967580  0.0000
  O2     O2        0.641092974264230    0.731994236861520    0.869285642146929  0.0000
  O3     O3        0.836207125789150    0.799286558702831    0.861197505431715  0.0000
  O2     O2        0.660950720574588    0.228782024824189    0.862387028543434  0.0000
  O2     O2        0.158850276264323    0.771705599638698    0.124274101004276  0.0000
  O2     O2        0.341167275108105    0.237473625721383    0.128587235187138  0.0000
  O2     O2        0.627390203596678    0.466305943075774    0.036287461666338  0.0000
  O3     O3        0.876863720099415    0.540976379847574    0.036698143570269  0.0000
  O3     O3        0.369509718522879    0.463989792931042    0.946571983631617  0.0000
  O2     O2        0.125559257632885    0.520998666954678    0.957102393926614  0.0000
  O2     O2        0.763885133794771    0.309519206692271    0.046829788367739  0.0000
  O3     O3        0.731753839716614    0.721829966875441    0.069765248423916  0.0000
  O2     O2        0.236389594371531    0.284623876186726    0.943079877276873  0.0000
  O3     O3        0.252596895299657    0.718821087267513    0.926243960416067  0.0000
