data_c00154.vasp
_audit_creation_method             Generated by GULP
_audit_author_name                 Salvador R. G. Balestra
_symmetry_space_group_name_H-M     'P 1             '
_symmetry_Int_Tables_number        1

loop_
_symmetry_equiv_pos_site_id
_symmetry_equiv_pos_as_xyz
_cell_length_a                       17.0895
_cell_length_b                        7.5957
_cell_length_c                       10.2820
_cell_angle_alpha                   89.7849
_cell_angle_beta                    89.5116
_cell_angle_gamma                   89.8493

loop_
_atom_site_label
_atom_site_type_symbol
_atom_site_fract_x
_atom_site_fract_y
_atom_site_fract_z
_atom_site_charge
  Ge     Ge        0.556730000000016    0.000000000000000    0.122129999999970  0.0000
  Ge     Ge        0.354411005521223    0.682308040226927    0.299369864506014  0.0000
  Ge     Ge        0.336698053635339    0.261274088657439    0.294719805188123  0.0000
  Si     Si        0.050211023997255    0.009856176462942    0.382688639384562  0.0000
  Si     Si        0.456965052026531    0.986630480482720    0.386761924563251  0.0000
  Si     Si        0.956671000471392    0.008631365133667    0.648559649449927  0.0000
  Si     Si        0.557728707052792    0.996088384115206    0.636588046542615  0.0000
  Si     Si        0.947467229676394    0.006395533091617    0.134884970655067  0.0000
  Si     Si        0.447013001927260    0.999670870401961    0.876371516975314  0.0000
  Si     Si        0.063007553341514    0.009224844309112    0.898470986285105  0.0000
  Si     Si        0.153550579987420    0.316973007294686    0.292320816936274  0.0000
  Si     Si        0.852026559793394    0.315443099972184    0.732517170450681  0.0000
  Si     Si        0.660050430630554    0.691611455560240    0.736867600156215  0.0000
  Si     Si        0.840159106522264    0.719298606451622    0.733220786798474  0.0000
  Si     Si        0.672146994328999    0.284641338187837    0.737880698788462  0.0000
  Si     Si        0.170119875218815    0.722100746711910    0.294333192198130  0.0000
  Si     Si        0.675379891155806    0.282608184401021    0.040089227124590  0.0000
  Si     Si        0.836981966906526    0.720105102936594    0.036809112315789  0.0000
  Si     Si        0.337116963104203    0.281135440525286    0.986202168798489  0.0000
  Si     Si        0.174940997989033    0.722032870363055    0.988769976497559  0.0000
  Si     Si        0.355240841392141    0.686564917913132    0.991690118954484  0.0000
  Si     Si        0.157003137983600    0.325262822605590    0.987513372146279  0.0000
  Si     Si        0.656314206935126    0.682404337232167    0.038772815262496  0.0000
  Si     Si        0.855212278910957    0.322802093368042    0.036096861305598  0.0000
  O2     O2        0.089292888150087    0.201891515558179    0.369037136591270  0.0000
  O3     O3        0.422886475303119    0.791283098631480    0.390714369289388  0.0000
  O2     O2        0.911446211356302    0.195476133802017    0.649828180123193  0.0000
  O2     O2        0.601936988339359    0.809274122917122    0.650971705806265  0.0000
  O2     O2        0.892660695430026    0.852919588747576    0.649696539780904  0.0000
  O2     O2        0.618548563335036    0.155239268044408    0.654763293203624  0.0000
  O2     O2        0.115958771563999    0.858430676594925    0.372062144916282  0.0000
  O3     O3        0.382565819464282    0.115764104092431    0.396952336947816  0.0000
  O2     O2        0.009113258368206    0.994108477334041    0.521200492172494  0.0000
  O2     O2        0.524468054054680    0.011741306596104    0.491942583902837  0.0000
  O2     O2        0.984248571370095    0.983414339853480    0.275287518335515  0.0000
  O3     O3        0.493915782111059    0.036626986235455    0.247091161002060  0.0000
  O2     O2        0.014315434112396    0.988365619794406    0.769092885853778  0.0000
  O2     O2        0.483093010697017    0.006901936692752    0.732026017761152  0.0000
  O3     O3        0.633479186679271    0.147181326065950    0.132828267851010  0.0000
  O2     O2        0.878423217503658    0.864209800578860    0.124736471952978  0.0000
  O2     O2        0.379689232165565    0.149310595610261    0.886298816682449  0.0000
  O2     O2        0.132812398180461    0.865964524370960    0.899334345632922  0.0000
  O2     O2        0.412876197795247    0.803372196695147    0.901740042131900  0.0000
  O2     O2        0.098923672011726    0.205744874620035    0.903628462661272  0.0000
  O3     O3        0.596189286818154    0.789885663141507    0.125893845476263  0.0000
  O2     O2        0.913741621127137    0.203905962311272    0.119919899029206  0.0000
  O3     O3        0.513083790731327    0.048313335959722    0.977180038568004  0.0000
  O2     O2        0.010779797181105    0.965861420943535    0.024012635463597  0.0000
  O2     O2        0.139477644501814    0.523690885141230    0.319925888260060  0.0000
  O1     O1        0.373492432485221    0.466169912978691    0.320968058689424  0.0000
  O2     O2        0.867942017452464    0.520477795724904    0.702163022888333  0.0000
  O2     O2        0.644121705942343    0.485209538295627    0.712439307362898  0.0000
  O3     O3        0.238895794065411    0.262173077798055    0.337653726047098  0.0000
  O3     O3        0.258879554661522    0.736287926980298    0.340822672173144  0.0000
  O2     O2        0.763037309365633    0.266013606133226    0.695578415303190  0.0000
  O2     O2        0.748998642699451    0.739594073116254    0.696663559215835  0.0000
  O2     O2        0.145543925194669    0.277624689462393    0.138862557534649  0.0000
  O3     O3        0.369728788196497    0.744812772134508    0.138444145533143  0.0000
  O2     O2        0.867608769867320    0.277396867738797    0.884362907273430  0.0000
  O2     O2        0.643720372291759    0.737295048428646    0.887740819660953  0.0000
  O2     O2        0.849459017796933    0.765121805056412    0.884990788762354  0.0000
  O2     O2        0.664436789761690    0.231066561275264    0.888750649400074  0.0000
  O2     O2        0.167511367899164    0.768264157677137    0.140981555741754  0.0000
  O3     O3        0.346033065946568    0.208492489739041    0.131543406731218  0.0000
  O2     O2        0.639243388170775    0.477019310258466    0.060902995291245  0.0000
  O2     O2        0.873526402793401    0.527097107637372    0.064629410705669  0.0000
  O2     O2        0.373863411237624    0.478129440181302    0.977403211544293  0.0000
  O2     O2        0.137415909611099    0.530276177872246    0.961527053429994  0.0000
  O2     O2        0.766530686438536    0.281733627975868    0.076365354344537  0.0000
  O2     O2        0.745797693721657    0.724958487204092    0.074941899346278  0.0000
  O2     O2        0.246339688719827    0.287712618998030    0.946511944728549  0.0000
  O2     O2        0.266077050912989    0.722000358045144    0.949577714758147  0.0000
