data_c00102.vasp
_audit_creation_method             Generated by GULP
_audit_author_name                 Salvador R. G. Balestra
_symmetry_space_group_name_H-M     'P 1             '
_symmetry_Int_Tables_number        1

loop_
_symmetry_equiv_pos_site_id
_symmetry_equiv_pos_as_xyz
_cell_length_a                       17.2750
_cell_length_b                        7.6570
_cell_length_c                       10.1545
_cell_angle_alpha                   90.6153
_cell_angle_beta                    90.2138
_cell_angle_gamma                   90.4603

loop_
_atom_site_label
_atom_site_type_symbol
_atom_site_fract_x
_atom_site_fract_y
_atom_site_fract_z
_atom_site_charge
  Ge     Ge        0.052090000000021    0.000000000000000    0.372269999999958  0.0000
  Ge     Ge        0.660830183632312    0.701337107621879    0.720734705144926  0.0000
  Ge     Ge        0.334440100042100    0.710651362718286    0.974499065920935  0.0000
  Si     Si        0.450412458950517    0.016103992649726    0.384447468399310  0.0000
  Si     Si        0.951499959370970    0.998784151471463    0.635208511182008  0.0000
  Si     Si        0.551113237032709    0.999372276060831    0.640654962909250  0.0000
  Si     Si        0.554207136680960    0.999532654827803    0.135078694289126  0.0000
  Si     Si        0.942117036411243    0.009161163783425    0.114610412701560  0.0000
  Si     Si        0.443948472464077    0.003408790355885    0.890826869084482  0.0000
  Si     Si        0.055268202440248    0.993273967189876    0.880252415703334  0.0000
  Si     Si        0.167925140150232    0.293716333821269    0.296962259916925  0.0000
  Si     Si        0.339647789691936    0.719256954934875    0.288351432348277  0.0000
  Si     Si        0.841855265311556    0.297179557666792    0.734087182752897  0.0000
  Si     Si        0.842344010764098    0.698649379338940    0.729448734229514  0.0000
  Si     Si        0.663554079222127    0.291801260753463    0.722819058105947  0.0000
  Si     Si        0.161642101934873    0.696621742576182    0.295188061252551  0.0000
  Si     Si        0.346531449351527    0.315384712334950    0.287822617463997  0.0000
  Si     Si        0.657357160532024    0.303298032294950    0.031001577859070  0.0000
  Si     Si        0.837424428228929    0.701034720467601    0.039922864262390  0.0000
  Si     Si        0.343083206898622    0.308066542816252    0.981107608363152  0.0000
  Si     Si        0.152960139416670    0.688323657281362    0.987179084631964  0.0000
  Si     Si        0.162849173592105    0.288119786885239    0.991409888077007  0.0000
  Si     Si        0.659163983406944    0.705120256845877    0.034346509805415  0.0000
  Si     Si        0.835299037190991    0.305118517621530    0.042740265371343  0.0000
  O3     O3        0.117078802648557    0.172349122651667    0.388180898468932  0.0000
  O2     O2        0.393168091308631    0.849565196263002    0.374193736059969  0.0000
  O2     O2        0.898528633135756    0.168157246439870    0.657895052609554  0.0000
  O3     O3        0.597652832983216    0.820901692316870    0.627882273675926  0.0000
  O2     O2        0.902787787366995    0.821349072217871    0.655035397604839  0.0000
  O2     O2        0.614152455575564    0.155679840216417    0.635598596650496  0.0000
  O3     O3        0.104789545145055    0.809949426588272    0.382398296983440  0.0000
  O2     O2        0.403648548029508    0.196259690761273    0.371688893271126  0.0000
  O3     O3        0.980521030666535    0.004980186405650    0.487429245414706  0.0000
  O2     O2        0.487710717140214    0.017593671482641    0.527981431797822  0.0000
  O3     O3        0.007561259669453    0.014341197300741    0.221817393093422  0.0000
  O2     O2        0.519652008446343    0.005013232029332    0.280427659630925  0.0000
  O2     O2        0.027121877115284    0.000430902256901    0.729358860497093  0.0000
  O2     O2        0.507273974878457    0.011330944039662    0.778913573901057  0.0000
  O2     O2        0.601646015492583    0.178716930595950    0.113547926308353  0.0000
  O2     O2        0.891089075610599    0.831763972144529    0.124724275861033  0.0000
  O2     O2        0.393364692058487    0.179178569981606    0.891653373196593  0.0000
  O2     O2        0.092613362201725    0.804552609976203    0.906619391119442  0.0000
  O3     O3        0.386161326246735    0.841868851522169    0.870832505205439  0.0000
  O2     O2        0.116965682296419    0.149361803667480    0.901643982381261  0.0000
  O2     O2        0.608938670541244    0.830783843228594    0.127000051756995  0.0000
  O2     O2        0.885648792792642    0.175563108961994    0.130669084958892  0.0000
  O2     O2        0.485089102248225    0.977599968827642    0.031323012525584  0.0000
  O2     O2        0.981040994286239    0.020019620079898    0.971292595301532  0.0000
  O2     O2        0.142851883430486    0.493614793562164    0.318520417825848  0.0000
  O2     O2        0.366673052857393    0.519637061893195    0.310844195150934  0.0000
  O2     O2        0.865014971393682    0.496859936594866    0.702110841777154  0.0000
  O3     O3        0.637779271710326    0.485422619031180    0.691711258000010  0.0000
  O2     O2        0.258700060213243    0.274918066144380    0.331188567998255  0.0000
  O2     O2        0.250652527867429    0.738885382434300    0.333783732834561  0.0000
  O2     O2        0.753706861265633    0.263719618814507    0.687078589942443  0.0000
  O3     O3        0.756448617171359    0.735266807092801    0.678753921827711  0.0000
  O2     O2        0.153843969961850    0.236729112789459    0.144226367422396  0.0000
  O3     O3        0.346579515754122    0.770692188753789    0.137084930609127  0.0000
  O2     O2        0.847510331640547    0.261803410578150    0.889224356341285  0.0000
  O3     O3        0.648247954425707    0.758747952346732    0.884035504310506  0.0000
  O2     O2        0.846127265891944    0.738526409023678    0.885390929069052  0.0000
  O2     O2        0.650746737252141    0.253264018617986    0.877434186699497  0.0000
  O2     O2        0.149430417308355    0.742454200235075    0.141187619638315  0.0000
  O2     O2        0.357364455212146    0.266667559213450    0.134675459633829  0.0000
  O2     O2        0.631876114098092    0.503991622516047    0.052805347152234  0.0000
  O2     O2        0.862406045919758    0.503701606506330    0.073565539130062  0.0000
  O3     O3        0.368353139079700    0.502226127090536    0.949348292538708  0.0000
  O2     O2        0.130610222312704    0.483291881546187    0.968552767129364  0.0000
  O2     O2        0.745412951812245    0.279254066955015    0.079833424940006  0.0000
  O2     O2        0.748272943096834    0.727792759426022    0.078882224433729  0.0000
  O2     O2        0.252237571836836    0.281621465781464    0.948893964137792  0.0000
  O3     O3        0.238028213408356    0.722291476976874    0.932962143896815  0.0000
