data_c00118.vasp
_audit_creation_method             Generated by GULP
_audit_author_name                 Salvador R. G. Balestra
_symmetry_space_group_name_H-M     'P 1             '
_symmetry_Int_Tables_number        1

loop_
_symmetry_equiv_pos_site_id
_symmetry_equiv_pos_as_xyz
_cell_length_a                       17.0588
_cell_length_b                        7.6285
_cell_length_c                       10.3209
_cell_angle_alpha                   90.2078
_cell_angle_beta                    90.3508
_cell_angle_gamma                   89.4067

loop_
_atom_site_label
_atom_site_type_symbol
_atom_site_fract_x
_atom_site_fract_y
_atom_site_fract_z
_atom_site_charge
  Ge     Ge        0.052090000000021    0.000000000000000    0.372269999999958  0.0000
  Ge     Ge        0.331244369020332    0.257240660338079    0.966312362075959  0.0000
  Ge     Ge        0.169803033656383    0.713838093009486    0.972153091402733  0.0000
  Si     Si        0.453092425459962    0.975071211885024    0.358801416046044  0.0000
  Si     Si        0.949270195308555    0.987070517736221    0.633710330762301  0.0000
  Si     Si        0.550648461333731    0.980688559298052    0.620294590967628  0.0000
  Si     Si        0.554871502837941    0.993997433888836    0.106691013054383  0.0000
  Si     Si        0.943422065375231    0.982208300688159    0.120972441672733  0.0000
  Si     Si        0.442993859933826    0.970839635555240    0.868593661648751  0.0000
  Si     Si        0.054188596053163    0.998724398743446    0.886034001182645  0.0000
  Si     Si        0.156626757751996    0.307261043077395    0.274471964877513  0.0000
  Si     Si        0.352165886729222    0.665374877490278    0.269791859269382  0.0000
  Si     Si        0.842834117679414    0.291221014883053    0.709509947804666  0.0000
  Si     Si        0.656432249665250    0.678118623985844    0.707457071647167  0.0000
  Si     Si        0.837538845347753    0.693099450194509    0.710769490187824  0.0000
  Si     Si        0.661876809199629    0.275676177068097    0.710198383074756  0.0000
  Si     Si        0.173566332099728    0.713455362210161    0.276863628478890  0.0000
  Si     Si        0.335960691342126    0.262452778842904    0.274000308192004  0.0000
  Si     Si        0.664585141446268    0.280071628642551    0.012473921897548  0.0000
  Si     Si        0.834938234265019    0.694146690990697    0.013384862405565  0.0000
  Si     Si        0.353527549774735    0.655288669882133    0.965705634214119  0.0000
  Si     Si        0.147203935755198    0.313376094184029    0.974036632802249  0.0000
  Si     Si        0.653593387794174    0.679862706259286    0.009097342311697  0.0000
  Si     Si        0.845738364207833    0.294498522415322    0.012095267953909  0.0000
  O3     O3        0.095489121596144    0.202560742558158    0.358846318565976  0.0000
  O2     O2        0.413882988964309    0.783700743205114    0.348060445963972  0.0000
  O2     O2        0.898061053764306    0.166504434562249    0.623463852011855  0.0000
  O2     O2        0.601188686831806    0.801152889421809    0.620262435122835  0.0000
  O2     O2        0.890299671695081    0.822024337333707    0.626491476965811  0.0000
  O2     O2        0.608731035781334    0.145982153706856    0.626113863560743  0.0000
  O3     O3        0.122968385627431    0.837824017995451    0.367569975464946  0.0000
  O2     O2        0.386725200261642    0.127098043374951    0.360032351746851  0.0000
  O3     O3        0.012465302021635    0.980562996164651    0.523777997293738  0.0000
  O2     O2        0.500462625680489    0.988588759165840    0.491046171187703  0.0000
  O3     O3        0.975654004533755    0.974853396139401    0.264861937495077  0.0000
  O2     O2        0.513917166502801    0.004565320261315    0.244032251322675  0.0000
  O2     O2        0.993536434119764    0.980521229161124    0.770592081301248  0.0000
  O2     O2        0.491704166866264    0.986599307143034    0.739264419469392  0.0000
  O2     O2        0.619046026774442    0.146782490745060    0.103054989221625  0.0000
  O2     O2        0.880179321992782    0.828839582524920    0.104271933096013  0.0000
  O3     O3        0.368860297226615    0.100069369333528    0.864565789593349  0.0000
  O3     O3        0.126150415842498    0.864746140101969    0.871309670050955  0.0000
  O2     O2        0.414287595041617    0.771907022639265    0.885664048181916  0.0000
  O2     O2        0.085973418670316    0.197090019173701    0.892465425992640  0.0000
  O2     O2        0.595982312132664    0.803628375987135    0.091074597336908  0.0000
  O2     O2        0.903291917612558    0.172096436071864    0.095489059329225  0.0000
  O2     O2        0.492774398819653    0.033879315113178    0.993275080346974  0.0000
  O2     O2        0.014014614546852    0.945758987723045    0.021775199171631  0.0000
  O2     O2        0.141549273530734    0.515167650590060    0.286168460471223  0.0000
  O2     O2        0.369792904054558    0.459069622551920    0.291873068790298  0.0000
  O2     O2        0.862969962033264    0.492988878100099    0.679709899540977  0.0000
  O2     O2        0.636414426907594    0.475602258076828    0.679490127908650  0.0000
  O2     O2        0.245440412370094    0.259756569942627    0.319539428299278  0.0000
  O2     O2        0.265035347311751    0.713181016501093    0.319094292468493  0.0000
  O2     O2        0.752850122687225    0.250026626008889    0.673382767195012  0.0000
  O2     O2        0.746399452277662    0.718385157838724    0.673124842161343  0.0000
  O2     O2        0.145626352174621    0.250819595414984    0.124356274283319  0.0000
  O2     O2        0.358059600707522    0.708354677349651    0.117826360939611  0.0000
  O2     O2        0.858181588596656    0.251604816909994    0.860859511320556  0.0000
  O2     O2        0.640390227711294    0.722797350527680    0.857831956384990  0.0000
  O2     O2        0.848890803400491    0.736767646209463    0.862621162111124  0.0000
  O2     O2        0.650911815546649    0.232696142339340    0.861734946447444  0.0000
  O3     O3        0.166401304048035    0.783659938301847    0.131018649031811  0.0000
  O3     O3        0.340182313394920    0.198742274355936    0.126644253240739  0.0000
  O2     O2        0.633817306922189    0.477853841105395    0.039071020879273  0.0000
  O2     O2        0.865540222239239    0.496949961601981    0.042766651140079  0.0000
  O3     O3        0.377521755371087    0.455462768082651    0.944732060703440  0.0000
  O3     O3        0.123051419769840    0.514294784509008    0.959754628555551  0.0000
  O2     O2        0.755854314457122    0.260234169095569    0.048974458527662  0.0000
  O2     O2        0.743485108075005    0.714839894893008    0.047067305439506  0.0000
  O3     O3        0.234496715761862    0.283304594139343    0.922579774841871  0.0000
  O3     O3        0.264985764033674    0.690115987599462    0.920006006201801  0.0000
