data_c00125.vasp
_audit_creation_method             Generated by GULP
_audit_author_name                 Salvador R. G. Balestra
_symmetry_space_group_name_H-M     'P 1             '
_symmetry_Int_Tables_number        1

loop_
_symmetry_equiv_pos_site_id
_symmetry_equiv_pos_as_xyz
_cell_length_a                       16.8325
_cell_length_b                        7.5460
_cell_length_c                       10.4979
_cell_angle_alpha                   90.4481
_cell_angle_beta                    89.6882
_cell_angle_gamma                   89.2454

loop_
_atom_site_label
_atom_site_type_symbol
_atom_site_fract_x
_atom_site_fract_y
_atom_site_fract_z
_atom_site_charge
  Ge     Ge        0.556730000000016    0.000000000000000    0.122129999999970  0.0000
  Ge     Ge        0.945767876561569    0.969449073990816    0.118162883677775  0.0000
  Ge     Ge        0.642434438094868    0.332022992264904    0.020681207928166  0.0000
  Si     Si        0.050609770070717    0.969655286568169    0.372397101986316  0.0000
  Si     Si        0.454293350334534    0.974364592440190    0.374192884524990  0.0000
  Si     Si        0.956112239231099    0.958557756438318    0.632945659248282  0.0000
  Si     Si        0.551298547037435    0.984261746281687    0.631076835553259  0.0000
  Si     Si        0.448208077602061    0.967507648622275    0.881541853391022  0.0000
  Si     Si        0.060166840747479    0.972867190884641    0.880526557388627  0.0000
  Si     Si        0.168676278338680    0.250594447047814    0.276205016170024  0.0000
  Si     Si        0.336893835776627    0.692356460400441    0.277399670919566  0.0000
  Si     Si        0.833156295756813    0.244751877155727    0.723074996860694  0.0000
  Si     Si        0.672887637008685    0.702325242780184    0.714272373842480  0.0000
  Si     Si        0.854845710492120    0.650851461925775    0.716714582571380  0.0000
  Si     Si        0.651301958494102    0.294886246866871    0.719670705525374  0.0000
  Si     Si        0.153762057181971    0.658851317330131    0.278835957658549  0.0000
  Si     Si        0.352135898051355    0.283663683634711    0.276775356802103  0.0000
  Si     Si        0.857966531651227    0.645705456467492    0.011465994617645  0.0000
  Si     Si        0.355509950397956    0.288515708389911    0.982045665960495  0.0000
  Si     Si        0.151917072314945    0.653157849696259    0.983343305650002  0.0000
  Si     Si        0.336009246371717    0.690375479933265    0.981106099177643  0.0000
  Si     Si        0.171221753802966    0.251633470913398    0.979930639055031  0.0000
  Si     Si        0.675760032841947    0.730277337247285    0.011243133040710  0.0000
  Si     Si        0.827566591495230    0.252433226845027    0.020117322646487  0.0000
  O2     O2        0.118323882108338    0.119326600025938    0.362690457592131  0.0000
  O2     O2        0.387111210556728    0.823687249147156    0.364903396432005  0.0000
  O2     O2        0.885572205265525    0.104626204097427    0.642541330077861  0.0000
  O2     O2        0.621518610135889    0.835867886678336    0.627868195249005  0.0000
  O2     O2        0.917016483025359    0.763442717017331    0.633586177650101  0.0000
  O2     O2        0.590671383710912    0.178430802718832    0.635314220712104  0.0000
  O2     O2        0.092858517540831    0.776169906524889    0.362603197586486  0.0000
  O2     O2        0.412606939922768    0.167656229414848    0.359822205200603  0.0000
  O2     O2        0.005222015353348    0.986026171534597    0.505166443138658  0.0000
  O2     O2        0.497377295863987    0.965491517124350    0.508044524660638  0.0000
  O3     O3        0.986519125604624    0.999665594655099    0.264337501429749  0.0000
  O3     O3        0.520048736592473    0.940665692383617    0.267057186029569  0.0000
  O2     O2        0.018353043251040    0.983920653939674    0.745828093314252  0.0000
  O2     O2        0.493004451559378    0.949609191593221    0.748834064291614  0.0000
  O1     O1        0.574676753849423    0.221003269115518    0.110735185887525  0.0000
  O3     O3        0.918009623614331    0.751663889374135    0.098133889952386  0.0000
  O2     O2        0.414764944864239    0.169603090762315    0.896476419527924  0.0000
  O2     O2        0.092681109797183    0.772010113141031    0.900207718638524  0.0000
  O2     O2        0.375561524131115    0.828818609463823    0.886411516984742  0.0000
  O2     O2        0.133250746706949    0.110572773858091    0.884689459695063  0.0000
  O3     O3        0.648016969111229    0.893872812225058    0.095449093685406  0.0000
  O3     O3        0.863205617349814    0.105852206031155    0.110755843476021  0.0000
  O3     O3        0.502052520994556    0.914487775396233    0.998682139918560  0.0000
  O3     O3        0.004365794473229    0.037256493110159    0.994320576820900  0.0000
  O2     O2        0.140456199590361    0.451946828877654    0.305872022125251  0.0000
  O2     O2        0.365258798754509    0.491024013984487    0.304269192080967  0.0000
  O2     O2        0.867999389480331    0.440366905153359    0.697205127052519  0.0000
  O2     O2        0.638647509105384    0.504789897385789    0.695874109073637  0.0000
  O2     O2        0.261872470576937    0.230215540514714    0.308335869882248  0.0000
  O2     O2        0.243811601904000    0.712216462624615    0.311598022173061  0.0000
  O2     O2        0.741415908440186    0.239708957187404    0.679489630268618  0.0000
  O2     O2        0.765555383698366    0.704017081187565    0.673679600210521  0.0000
  O2     O2        0.155702006551022    0.201872686834288    0.127688774282148  0.0000
  O2     O2        0.349805389089246    0.741865939566637    0.129308901641270  0.0000
  O2     O2        0.834376279811154    0.192772430594930    0.871452432573363  0.0000
  O2     O2        0.666904229169184    0.767109715198917    0.860103870306156  0.0000
  O2     O2        0.870865583294240    0.701821902105255    0.863862220955445  0.0000
  O3     O3        0.632278303266467    0.255290460273125    0.865349073617437  0.0000
  O2     O2        0.134849057909449    0.700748107083850    0.131357467445028  0.0000
  O2     O2        0.373146762617537    0.239682737238703    0.129232186462364  0.0000
  O3     O3        0.624891126418532    0.555270635803109    0.039500338127718  0.0000
  O2     O2        0.874959861409510    0.437875308650892    0.032009838861444  0.0000
  O2     O2        0.373033965936301    0.494188780620617    0.955942750737636  0.0000
  O2     O2        0.134859837157549    0.447408170621419    0.954639449685196  0.0000
  O3     O3        0.738100046278619    0.282378699474145    0.064738341108767  0.0000
  O2     O2        0.766847643954105    0.688939227187708    0.046998866942373  0.0000
  O2     O2        0.264711972038875    0.248049591293979    0.950628382963921  0.0000
  O2     O2        0.242874965660582    0.693884806997143    0.950445864539919  0.0000
