data_c00178.vasp
_audit_creation_method             Generated by GULP
_audit_author_name                 Salvador R. G. Balestra
_symmetry_space_group_name_H-M     'P 1             '
_symmetry_Int_Tables_number        1

loop_
_symmetry_equiv_pos_site_id
_symmetry_equiv_pos_as_xyz
_cell_length_a                       17.0587
_cell_length_b                        7.5941
_cell_length_c                       10.2920
_cell_angle_alpha                   91.0543
_cell_angle_beta                    90.0933
_cell_angle_gamma                   90.1646

loop_
_atom_site_label
_atom_site_type_symbol
_atom_site_fract_x
_atom_site_fract_y
_atom_site_fract_z
_atom_site_charge
  Ge     Ge        0.556730000000016    0.000000000000000    0.122129999999970  0.0000
  Ge     Ge        0.662213553376485    0.710518320831832    0.702866589799873  0.0000
  Ge     Ge        0.145832846914638    0.652208114474447    0.950520330890465  0.0000
  Si     Si        0.045549272715438    0.987172872530868    0.350814797626609  0.0000
  Si     Si        0.443915915912716    0.003954083438567    0.366513024870921  0.0000
  Si     Si        0.947724928653297    0.978831462992751    0.611386776341193  0.0000
  Si     Si        0.542117397893757    0.989764602097634    0.620821430233091  0.0000
  Si     Si        0.941858143877612    0.986628955159948    0.098201402324830  0.0000
  Si     Si        0.443750097052775    0.973975651186609    0.878954474735285  0.0000
  Si     Si        0.052743381399632    0.969766344719077    0.858599267133931  0.0000
  Si     Si        0.161281024433277    0.273573498799675    0.264442107739269  0.0000
  Si     Si        0.328767923102469    0.708916559680431    0.258503521974877  0.0000
  Si     Si        0.829557143159958    0.264951913125252    0.700239910931350  0.0000
  Si     Si        0.846568176267552    0.669350018128007    0.698357148433586  0.0000
  Si     Si        0.648461174140563    0.295398166108130    0.704032288903697  0.0000
  Si     Si        0.149281454068033    0.680453517071880    0.259600832178143  0.0000
  Si     Si        0.341819917925611    0.305127883898699    0.268334734863318  0.0000
  Si     Si        0.649580429871164    0.313396292552654    0.004840318938343  0.0000
  Si     Si        0.849534157226657    0.667332707850837    0.002305553874084  0.0000
  Si     Si        0.347204517327804    0.292069182220398    0.966534115479776  0.0000
  Si     Si        0.329360548361959    0.687983480376667    0.952993477078661  0.0000
  Si     Si        0.165522509419584    0.248371238273664    0.961495423827528  0.0000
  Si     Si        0.668964200022685    0.717256829160355    0.008529111235771  0.0000
  Si     Si        0.829943502184305    0.270971244920429    0.004169756586548  0.0000
  O2     O2        0.109102104187183    0.145660497808305    0.351728300931019  0.0000
  O2     O2        0.382703442796835    0.847044755803402    0.335837370378078  0.0000
  O2     O2        0.879193528328772    0.124774433464165    0.616622345820886  0.0000
  O3     O3        0.605571123780695    0.836728526665351    0.602894203079448  0.0000
  O2     O2        0.909273820580273    0.784618687658580    0.619282887226222  0.0000
  O2     O2        0.589253419283629    0.174666386662621    0.619729331473537  0.0000
  O2     O2        0.090317385644366    0.800517741198359    0.344484625870028  0.0000
  O2     O2        0.400148022047625    0.191473423235673    0.355220877423204  0.0000
  O2     O2        0.994702262280761    0.996893359894674    0.479545722876324  0.0000
  O2     O2        0.474820654765567    0.986994078731415    0.512803147134740  0.0000
  O2     O2        0.985755581465041    0.010986480955947    0.233046038329687  0.0000
  O3     O3        0.519322469339388    0.993867040457524    0.275906010603835  0.0000
  O2     O2        0.009442446990513    0.014868826112353    0.726321815131191  0.0000
  O2     O2        0.501048797696964    0.957773819783645    0.758371165952360  0.0000
  O3     O3        0.590789522229678    0.210561506868940    0.095111883197923  0.0000
  O2     O2        0.908328731218757    0.787710028234008    0.087393698520805  0.0000
  O2     O2        0.405009842004010    0.168374740275276    0.883539890969786  0.0000
  O3     O3        0.079440690580234    0.768376563966926    0.860036699006049  0.0000
  O2     O2        0.376766140806311    0.824247540474787    0.866025068091744  0.0000
  O2     O2        0.131170059628464    0.088874655666637    0.874457516935453  0.0000
  O3     O3        0.631816280957062    0.848529494199258    0.112130796219805  0.0000
  O2     O2        0.871820811167561    0.128100626214695    0.092693715991292  0.0000
  O3     O3        0.487888665418688    0.933189867625683    0.011013843280978  0.0000
  O2     O2        0.998858435650887    0.025583874023427    0.979547238480437  0.0000
  O2     O2        0.132204626349181    0.474262659945914    0.283849826326743  0.0000
  O2     O2        0.358845294075960    0.512435308256771    0.290155967077189  0.0000
  O2     O2        0.860032145757111    0.461484905066883    0.669992952245590  0.0000
  O3     O3        0.630369503745555    0.496567051103558    0.680705211271879  0.0000
  O2     O2        0.252336245201152    0.260653741709034    0.306069229217137  0.0000
  O2     O2        0.238426345142907    0.727753286891007    0.302263234591240  0.0000
  O2     O2        0.737982382036324    0.249637362533013    0.662341800878179  0.0000
  O3     O3        0.759661268712337    0.722050452516451    0.658387912097455  0.0000
  O2     O2        0.153825106330588    0.212530095973195    0.114501945490312  0.0000
  O2     O2        0.332188872773250    0.744766697067894    0.105210508941362  0.0000
  O2     O2        0.838921803249759    0.221380824967272    0.852128678727821  0.0000
  O3     O3        0.655132591377971    0.782313118833889    0.862639789779451  0.0000
  O2     O2        0.861323890002771    0.710449622035654    0.851003778795424  0.0000
  O2     O2        0.636679108300718    0.249336994186330    0.855764234222463  0.0000
  O3     O3        0.135309876306454    0.721917583296566    0.109969592219576  0.0000
  O2     O2        0.359556765363093    0.251224427812329    0.118725547668228  0.0000
  O2     O2        0.632472785689234    0.520993559770179    0.017770767826506  0.0000
  O2     O2        0.868562832910387    0.463496985597641    0.030283565649228  0.0000
  O2     O2        0.368109132941050    0.494053781669028    0.936971964588836  0.0000
  O3     O3        0.124847202938171    0.431518985222609    0.929300172038914  0.0000
  O2     O2        0.739158249771942    0.272521287000408    0.044992763507855  0.0000
  O2     O2        0.760977734454932    0.709345965982828    0.041175391587996  0.0000
  O2     O2        0.257402242091667    0.256919700016000    0.928100328722948  0.0000
  O3     O3        0.241239276741659    0.685749765265778    0.903038346102295  0.0000
