data_c00195.vasp
_audit_creation_method             Generated by GULP
_audit_author_name                 Salvador R. G. Balestra
_symmetry_space_group_name_H-M     'P 1             '
_symmetry_Int_Tables_number        1

loop_
_symmetry_equiv_pos_site_id
_symmetry_equiv_pos_as_xyz
_cell_length_a                       16.9257
_cell_length_b                        7.6047
_cell_length_c                       10.3638
_cell_angle_alpha                   89.7847
_cell_angle_beta                    90.3832
_cell_angle_gamma                   89.7560

loop_
_atom_site_label
_atom_site_type_symbol
_atom_site_fract_x
_atom_site_fract_y
_atom_site_fract_z
_atom_site_charge
  Ge     Ge        0.556730000000016    0.000000000000000    0.122129999999970  0.0000
  Ge     Ge        0.329787223343778    0.279325605157609    0.972601761942511  0.0000
  Ge     Ge        0.169327874333209    0.735943705304754    0.973341505516990  0.0000
  Si     Si        0.049592461071367    0.011129598166894    0.362776788673060  0.0000
  Si     Si        0.449602261025225    0.992173148228048    0.374697162486907  0.0000
  Si     Si        0.949881564479419    0.011983011418805    0.620267926308413  0.0000
  Si     Si        0.549186228371191    0.996146988366809    0.631906636160227  0.0000
  Si     Si        0.948569535313187    0.998127219495916    0.107258173379254  0.0000
  Si     Si        0.443729617697952    0.998482562137005    0.881944997343514  0.0000
  Si     Si        0.057584739177127    0.018606026505511    0.870435617165137  0.0000
  Si     Si        0.151520954521926    0.321050059584910    0.273906109930687  0.0000
  Si     Si        0.347763207709452    0.683968329525353    0.278750218084779  0.0000
  Si     Si        0.847283734327698    0.317096316105785    0.707597736118186  0.0000
  Si     Si        0.653820019641711    0.690200895337802    0.714760037230827  0.0000
  Si     Si        0.835691050363215    0.719752902102219    0.711124302637119  0.0000
  Si     Si        0.664701047400645    0.284911729406177    0.714671594969330  0.0000
  Si     Si        0.167055537670291    0.725976349889122    0.279135659825799  0.0000
  Si     Si        0.332108152180222    0.278811434455940    0.278601784975332  0.0000
  Si     Si        0.672003916304964    0.280188125902094    0.013718731342984  0.0000
  Si     Si        0.835488223150382    0.714913979483055    0.012577517263798  0.0000
  Si     Si        0.354882011566835    0.677463420591486    0.977390876041167  0.0000
  Si     Si        0.144589469920049    0.337489784380216    0.972255817896390  0.0000
  Si     Si        0.652952004238535    0.681343305381672    0.014314546911387  0.0000
  Si     Si        0.854773506139916    0.316943308395820    0.007207407996776  0.0000
  O2     O2        0.090814496205506    0.202098014499177    0.354264219535948  0.0000
  O2     O2        0.409296192222177    0.800584334050361    0.359614496879954  0.0000
  O2     O2        0.903248377199690    0.197354966386001    0.619550461783859  0.0000
  O2     O2        0.595401770316201    0.810013502523168    0.628823913255817  0.0000
  O2     O2        0.886893952592017    0.853755459692632    0.626959202751262  0.0000
  O2     O2        0.612449980108933    0.155114141997728    0.627240420252460  0.0000
  O2     O2        0.115936746890611    0.857955987923209    0.366619810853078  0.0000
  O2     O2        0.383341278009430    0.144723491729164    0.365191745720037  0.0000
  O2     O2        0.999596866124635    0.997943566716054    0.491581071357279  0.0000
  O2     O2        0.489201824174959    0.005950157587030    0.514086246599897  0.0000
  O2     O2        0.990155207782889    0.981559535408350    0.244424300243570  0.0000
  O3     O3        0.518672309508351    0.018184259425865    0.273158875535989  0.0000
  O2     O2        0.009739273318679    0.998769740873200    0.739506135565462  0.0000
  O2     O2        0.498340546694203    0.015127757190113    0.759569460978049  0.0000
  O3     O3        0.634649295522579    0.144517645685402    0.110240959447260  0.0000
  O2     O2        0.878642764633654    0.855712167013623    0.102436935824416  0.0000
  O3     O3        0.367628798028676    0.123250974164731    0.870962603146355  0.0000
  O3     O3        0.133809276237077    0.894303273597184    0.869857704016770  0.0000
  O2     O2        0.417422783708429    0.796110072176905    0.900706213690482  0.0000
  O2     O2        0.083320504721790    0.220555680045182    0.890434905793549  0.0000
  O3     O3        0.592499553206037    0.788984017896534    0.099272268240531  0.0000
  O2     O2        0.914335159311464    0.195519265478577    0.089551043535670  0.0000
  O3     O3        0.488678938032087    0.066602922931857    0.008909229896554  0.0000
  O2     O2        0.008748997697705    0.948083331174576    0.993745143757258  0.0000
  O2     O2        0.133696935572804    0.527744833480376    0.294920504295076  0.0000
  O2     O2        0.365577472645584    0.476603769550213    0.297672156626374  0.0000
  O2     O2        0.864036157211439    0.521740165388090    0.679222639891523  0.0000
  O2     O2        0.636005528348001    0.485111382206376    0.689790013728009  0.0000
  O2     O2        0.240380334016067    0.275497858280646    0.321154853069179  0.0000
  O2     O2        0.258832706185983    0.728166467588220    0.323928716261255  0.0000
  O2     O2        0.756508259280767    0.269559084217298    0.676160787913290  0.0000
  O2     O2        0.743302089078818    0.737349220899405    0.675092730612973  0.0000
  O2     O2        0.142473382751124    0.277114079847904    0.122694494590827  0.0000
  O2     O2        0.358274614760871    0.733018762326684    0.128595728403708  0.0000
  O2     O2        0.867905335660935    0.274309811655422    0.856572685310445  0.0000
  O2     O2        0.639471635159144    0.735708459297415    0.864582418740286  0.0000
  O2     O2        0.846750803299487    0.763437341248223    0.862155023555170  0.0000
  O2     O2        0.655445687051674    0.229138116369552    0.864228656680002  0.0000
  O3     O3        0.162574054602562    0.794275855906965    0.133340453860635  0.0000
  O3     O3        0.337164114430297    0.215690076817505    0.132236218025980  0.0000
  O2     O2        0.636962729393964    0.475231533382651    0.036200408282286  0.0000
  O2     O2        0.872322511918799    0.520989185534976    0.037928289777575  0.0000
  O3     O3        0.379003407795953    0.477210211894364    0.958134185797097  0.0000
  O3     O3        0.120327608865829    0.538247800136044    0.954994297215802  0.0000
  O2     O2        0.765190015504799    0.275733751464510    0.043286383215525  0.0000
  O2     O2        0.743828920030999    0.722205922416637    0.050806756789620  0.0000
  O3     O3        0.233293690098447    0.308105091852570    0.924815311493588  0.0000
  O3     O3        0.266318683036259    0.708938068272313    0.928743597396946  0.0000
