data_c00110.vasp
_audit_creation_method             Generated by GULP
_audit_author_name                 Salvador R. G. Balestra
_symmetry_space_group_name_H-M     'P 1             '
_symmetry_Int_Tables_number        1

loop_
_symmetry_equiv_pos_site_id
_symmetry_equiv_pos_as_xyz
_cell_length_a                       17.1459
_cell_length_b                        7.6109
_cell_length_c                       10.2914
_cell_angle_alpha                   90.1463
_cell_angle_beta                    90.1470
_cell_angle_gamma                   89.9491

loop_
_atom_site_label
_atom_site_type_symbol
_atom_site_fract_x
_atom_site_fract_y
_atom_site_fract_z
_atom_site_charge
  Ge     Ge        0.052090000000021    0.000000000000000    0.372269999999958  0.0000
  Ge     Ge        0.652319030624246    0.339417738588097    0.024385303125664  0.0000
  Ge     Ge        0.168563810020589    0.293947055825051    0.966901023792109  0.0000
  Si     Si        0.453549860510141    0.010832048900075    0.361501051091321  0.0000
  Si     Si        0.947389607590583    0.000637038852277    0.632869805120929  0.0000
  Si     Si        0.549047579241560    0.013570849782954    0.625138663973929  0.0000
  Si     Si        0.558206490468559    0.022455597568035    0.115539867937828  0.0000
  Si     Si        0.947002669034546    0.016581864286660    0.116966325317975  0.0000
  Si     Si        0.445430327689466    0.016633394112832    0.876551508717831  0.0000
  Si     Si        0.056528185857978    0.008408960075534    0.880158365848745  0.0000
  Si     Si        0.172202703693653    0.284838910165080    0.272612875416113  0.0000
  Si     Si        0.338445911033063    0.722870808234765    0.275788469252757  0.0000
  Si     Si        0.832507540958225    0.294610019369715    0.713287948377747  0.0000
  Si     Si        0.664144748275154    0.723889740751902    0.710507321031788  0.0000
  Si     Si        0.843037878760233    0.696518263972261    0.703559586687503  0.0000
  Si     Si        0.653067825666858    0.318122235450830    0.715944602724263  0.0000
  Si     Si        0.158791335976174    0.695210899894048    0.276428551781830  0.0000
  Si     Si        0.350326550316323    0.320226755782676    0.269945069201117  0.0000
  Si     Si        0.850171724122970    0.704779356609661    0.006797730064765  0.0000
  Si     Si        0.350766781493245    0.333116885335818    0.964209572750817  0.0000
  Si     Si        0.153780302863225    0.700392460237455    0.977860410478145  0.0000
  Si     Si        0.335415512517029    0.729124981987039    0.972953865059365  0.0000
  Si     Si        0.670500740692453    0.743593547211221    0.014167378800257  0.0000
  Si     Si        0.835551157056492    0.307657040901407    0.018589348956578  0.0000
  O3     O3        0.119968294756668    0.166296017171709    0.363692978574151  0.0000
  O2     O2        0.389134125769887    0.856618875383778    0.361617090254460  0.0000
  O2     O2        0.884513327886589    0.159083214294449    0.631840123303310  0.0000
  O2     O2        0.610705737337884    0.853140417412745    0.625822377777290  0.0000
  O2     O2        0.900355071241944    0.816558806767016    0.617742540896656  0.0000
  O2     O2        0.594897028774149    0.198247488212220    0.631042936034224  0.0000
  O3     O3        0.099961010917412    0.799971876877737    0.366419886132201  0.0000
  O2     O2        0.411887109120634    0.199514265956952    0.345644309622429  0.0000
  O3     O3        0.009691311838537    0.021779595298304    0.522218866117681  0.0000
  O2     O2        0.499633762940710    0.007165406875873    0.494905903171404  0.0000
  O3     O3        0.977299370760733    0.016532968122411    0.262257229667629  0.0000
  O2     O2        0.515435110021017    0.975767930337388    0.248142086050628  0.0000
  O2     O2        0.992665178074720    0.003425603785897    0.769216765262062  0.0000
  O2     O2        0.488495124288864    0.991647157991639    0.741644331695848  0.0000
  O3     O3        0.587183620955878    0.221808360348418    0.116471424958076  0.0000
  O2     O2        0.909068440530895    0.827146304175682    0.085825422829073  0.0000
  O2     O2        0.412227041638998    0.214944986219084    0.885005291383939  0.0000
  O2     O2        0.100251594515594    0.821032644311759    0.886833221651795  0.0000
  O2     O2        0.375067294738360    0.876405471763519    0.884323488094869  0.0000
  O3     O3        0.119700228503766    0.159545467005696    0.860131832510408  0.0000
  O2     O2        0.634508345502374    0.899857989731359    0.099313387311016  0.0000
  O2     O2        0.883911285491147    0.171342911364694    0.104094317473798  0.0000
  O2     O2        0.502854095453611    0.976877488906738    0.994820079426506  0.0000
  O2     O2        0.017417337294632    0.055722337305630    0.018727973401880  0.0000
  O2     O2        0.144494829089742    0.487193327931526    0.283992939187018  0.0000
  O2     O2        0.368202499861352    0.524301850740453    0.300820080451203  0.0000
  O2     O2        0.861721774637607    0.491372070918960    0.679659705211740  0.0000
  O2     O2        0.634765241220926    0.523921846997795    0.692292321317643  0.0000
  O2     O2        0.263047380887873    0.271957575976410    0.314918230431376  0.0000
  O2     O2        0.248017168435422    0.739573046942952    0.316283319139442  0.0000
  O2     O2        0.741928978263399    0.275358543281727    0.673743354993825  0.0000
  O2     O2        0.753750536412913    0.737898634676769    0.663938154416265  0.0000
  O3     O3        0.163609432756105    0.220101544145074    0.124926581546914  0.0000
  O2     O2        0.347398048345910    0.774307300911091    0.124716772826172  0.0000
  O2     O2        0.839555477761581    0.255736527976604    0.866531631178394  0.0000
  O2     O2        0.659437248289215    0.780936925833362    0.860829087479617  0.0000
  O2     O2        0.857360993207867    0.745131406651828    0.854083172691599  0.0000
  O3     O3        0.639786279863039    0.272493847866059    0.865436859413469  0.0000
  O2     O2        0.142922109444227    0.758860999559005    0.128325367853201  0.0000
  O2     O2        0.357675030483577    0.284175615413438    0.116414078411807  0.0000
  O3     O3        0.631283117566227    0.558721053485644    0.046350932682945  0.0000
  O2     O2        0.872005397977118    0.502700946972917    0.036639866509065  0.0000
  O2     O2        0.372506548780235    0.537938763076660    0.942400975907022  0.0000
  O3     O3        0.129051195445373    0.501795206269666    0.956753948539710  0.0000
  O3     O3        0.747878153058017    0.303994701190000    0.068175053517564  0.0000
  O2     O2        0.761687310872366    0.738797570226634    0.051010890042378  0.0000
  O3     O3        0.264239247089108    0.296877042683390    0.916106047508364  0.0000
  O2     O2        0.244124515846412    0.725210368493746    0.938536370020588  0.0000
