data_c00183.vasp
_audit_creation_method             Generated by GULP
_audit_author_name                 Salvador R. G. Balestra
_symmetry_space_group_name_H-M     'P 1             '
_symmetry_Int_Tables_number        1

loop_
_symmetry_equiv_pos_site_id
_symmetry_equiv_pos_as_xyz
_cell_length_a                       16.8884
_cell_length_b                        7.6019
_cell_length_c                       10.3674
_cell_angle_alpha                   89.8957
_cell_angle_beta                    90.3910
_cell_angle_gamma                   90.6566

loop_
_atom_site_label
_atom_site_type_symbol
_atom_site_fract_x
_atom_site_fract_y
_atom_site_fract_z
_atom_site_charge
  Ge     Ge        0.556730000000016    0.000000000000000    0.122129999999970  0.0000
  Ge     Ge        0.673816755474216    0.284007905042486    0.008387912992413  0.0000
  Ge     Ge        0.827055166977235    0.755599266785805    0.008060150466937  0.0000
  Si     Si        0.046784365935487    0.026648861599552    0.358404540222617  0.0000
  Si     Si        0.448427391751958    0.017829640129440    0.371190987399059  0.0000
  Si     Si        0.947608844452694    0.035121270945585    0.616481439728644  0.0000
  Si     Si        0.546226753497932    0.010865073316223    0.628869640351366  0.0000
  Si     Si        0.941391761942240    0.039247385420802    0.106299708543262  0.0000
  Si     Si        0.443704809335620    0.032006570716484    0.881680175687912  0.0000
  Si     Si        0.051027382743894    0.017161177106235    0.870151825162438  0.0000
  Si     Si        0.152420203159045    0.330795778966714    0.270209778741337  0.0000
  Si     Si        0.342981300454773    0.714137531864396    0.271421636678885  0.0000
  Si     Si        0.847318303991802    0.345470533380623    0.703895605619528  0.0000
  Si     Si        0.648565383546554    0.699689014618573    0.708369596000455  0.0000
  Si     Si        0.828943666791072    0.748838323045048    0.701691759693125  0.0000
  Si     Si        0.666438324387919    0.295245997479144    0.703417375335098  0.0000
  Si     Si        0.160068092202931    0.735561568916856    0.268432563320123  0.0000
  Si     Si        0.334828208995156    0.309226184532278    0.268332730146771  0.0000
  Si     Si        0.331419087869519    0.313597899499766    0.967388154906651  0.0000
  Si     Si        0.162199105554054    0.734126734939096    0.968106119328405  0.0000
  Si     Si        0.345843822495225    0.713793615454891    0.971837731804551  0.0000
  Si     Si        0.148295038825932    0.333627091993960    0.969935836977856  0.0000
  Si     Si        0.642718324476734    0.680475059074833    0.009667916660865  0.0000
  Si     Si        0.857954351549980    0.361239903588118    0.005384996768128  0.0000
  O2     O2        0.095718618689627    0.209808113947994    0.356785484910028  0.0000
  O2     O2        0.400900962439072    0.833662699015514    0.357076174624848  0.0000
  O2     O2        0.908226525500167    0.227802431934928    0.623313837539881  0.0000
  O2     O2        0.586098171440466    0.818065967890026    0.629577281566700  0.0000
  O2     O2        0.879287144485884    0.885144053616699    0.615180233723375  0.0000
  O2     O2        0.614319215808883    0.161342354243498    0.615913441472669  0.0000
  O2     O2        0.107617997112414    0.864442852012923    0.353799183041417  0.0000
  O2     O2        0.388613295178260    0.179614769968916    0.351517455300082  0.0000
  O2     O2        0.996788116713413    0.017666877744562    0.487093338536905  0.0000
  O2     O2        0.484412691465850    0.026163304995700    0.513233476698025  0.0000
  O2     O2        0.987078253964055    0.014536073875494    0.239022533866218  0.0000
  O3     O3        0.520492814002705    0.027616344905869    0.273701506184316  0.0000
  O2     O2        0.007919482574634    0.005091137629184    0.733986713065203  0.0000
  O2     O2        0.497182360549414    0.044101257325661    0.757246532574235  0.0000
  O1     O1        0.641760791420061    0.123055160475335    0.108166557299859  0.0000
  O3     O3        0.863054612474501    0.920086620361610    0.106222701504691  0.0000
  O2     O2        0.375031420181964    0.178515079139631    0.874616345899395  0.0000
  O2     O2        0.118907143138627    0.870146659566370    0.874489493792117  0.0000
  O2     O2        0.404538888439290    0.836743424724880    0.890059547031064  0.0000
  O2     O2        0.089529846261735    0.211544270354802    0.886578082243953  0.0000
  O3     O3        0.578043099358669    0.783678664147747    0.089903148856470  0.0000
  O2     O2        0.920259798620348    0.243762242981191    0.085110198771984  0.0000
  O3     O3        0.494205464647179    0.083404589074016    0.006112123101875  0.0000
  O2     O2        0.991255690140907    0.968475013944385    0.984871199577797  0.0000
  O2     O2        0.134413683181193    0.534620222521638    0.297972053876820  0.0000
  O2     O2        0.360927176624688    0.509904959070914    0.298501223613223  0.0000
  O2     O2        0.864121122138790    0.553078695256393    0.682501799346980  0.0000
  O2     O2        0.631299136377245    0.491948082345446    0.688059805940527  0.0000
  O2     O2        0.242944623407891    0.285027637843871    0.305511360228556  0.0000
  O2     O2        0.252518861452532    0.759896066345927    0.304419822316277  0.0000
  O2     O2        0.758016410930246    0.297841062218607    0.658101934205694  0.0000
  O2     O2        0.736677728464521    0.747083451688754    0.658263788794925  0.0000
  O2     O2        0.135374184539011    0.287785585490227    0.120235211506207  0.0000
  O2     O2        0.361395183277645    0.758726346755957    0.122166408810934  0.0000
  O2     O2        0.858483447465983    0.301880614001673    0.854879113228244  0.0000
  O2     O2        0.641500412180076    0.744133894535151    0.859566570583559  0.0000
  O3     O3        0.832682460658071    0.814114653913957    0.847752446608253  0.0000
  O3     O3        0.664752474184551    0.223995299948543    0.848301952869128  0.0000
  O2     O2        0.147960760757511    0.781672875091339    0.117765558707729  0.0000
  O2     O2        0.345378764360399    0.265093545328347    0.117555874129034  0.0000
  O3     O3        0.621566172461826    0.477329746408666    0.023914817906457  0.0000
  O3     O3        0.880584030360139    0.563147464980770    0.023710900953512  0.0000
  O2     O2        0.364489002398602    0.510820621728621    0.941902873363588  0.0000
  O2     O2        0.129185038194300    0.537258969394521    0.941064544145091  0.0000
  O3     O3        0.769810752062779    0.329021518356353    0.054434509902440  0.0000
  O3     O3        0.731391053608236    0.722573154721205    0.058674203817803  0.0000
  O2     O2        0.238826439935442    0.298630036554532    0.932913626071260  0.0000
  O2     O2        0.254887996819342    0.750023951815900    0.936407976473541  0.0000
