data_c00234.vasp
_audit_creation_method             Generated by GULP
_audit_author_name                 Salvador R. G. Balestra
_symmetry_space_group_name_H-M     'P 1             '
_symmetry_Int_Tables_number        1

loop_
_symmetry_equiv_pos_site_id
_symmetry_equiv_pos_as_xyz
_cell_length_a                       17.0871
_cell_length_b                        7.6020
_cell_length_c                       10.2520
_cell_angle_alpha                   90.5187
_cell_angle_beta                    90.5343
_cell_angle_gamma                   89.2863

loop_
_atom_site_label
_atom_site_type_symbol
_atom_site_fract_x
_atom_site_fract_y
_atom_site_fract_z
_atom_site_charge
  Ge     Ge        0.160189999999943    0.293909999999983    0.273440000000051  0.0000
  Ge     Ge        0.644188764901949    0.333060880946091    0.017560033850238  0.0000
  Ge     Ge        0.850389037251415    0.680770393295679    0.016066851625149  0.0000
  Si     Si        0.043581066355584    0.012843988624134    0.358521850086608  0.0000
  Si     Si        0.447902535790743    0.008397765677688    0.354865801773636  0.0000
  Si     Si        0.942693604838525    0.990802110168145    0.612516766433372  0.0000
  Si     Si        0.544709316140911    0.011857379218995    0.618322352284632  0.0000
  Si     Si        0.551373481189659    0.015661401438782    0.106043788626681  0.0000
  Si     Si        0.944767904552236    0.000267371781401    0.100982694509748  0.0000
  Si     Si        0.438251889198038    0.004005893404327    0.865709265911943  0.0000
  Si     Si        0.052938865415494    0.003818123645078    0.857608758249026  0.0000
  Si     Si        0.331403634093331    0.724379152096727    0.268030270536724  0.0000
  Si     Si        0.826412667235776    0.284130874579683    0.709436937133770  0.0000
  Si     Si        0.662900963171306    0.721437932203708    0.710767069888941  0.0000
  Si     Si        0.841664298808436    0.688638521792992    0.706533757538999  0.0000
  Si     Si        0.647708738629955    0.316632603875196    0.708053839130268  0.0000
  Si     Si        0.149682680663109    0.706604631120961    0.267920159029601  0.0000
  Si     Si        0.343816784100970    0.319189429207891    0.271793033529882  0.0000
  Si     Si        0.341178375036043    0.318466839998599    0.966042657745706  0.0000
  Si     Si        0.148904464948477    0.693329870315778    0.965035675698246  0.0000
  Si     Si        0.329782705187850    0.717506876981580    0.964089930471918  0.0000
  Si     Si        0.160822862195340    0.289984640218519    0.963581522903593  0.0000
  Si     Si        0.667010622510967    0.732547093398615    0.017417710522906  0.0000
  Si     Si        0.827436803524834    0.281454610376359    0.016283228813642  0.0000
  O3     O3        0.104622992448009    0.168823733773377    0.374716571979694  0.0000
  O2     O2        0.380915928886087    0.860298759000133    0.354775462530914  0.0000
  O2     O2        0.879158683319098    0.147285277291268    0.628687721015185  0.0000
  O2     O2        0.609170715778415    0.856458248305237    0.630381638803220  0.0000
  O2     O2        0.900258196203799    0.802945282256645    0.619914313311844  0.0000
  O2     O2        0.587422211033015    0.200022237774273    0.623100880484098  0.0000
  O2     O2        0.093532229682456    0.831628680904778    0.352686751831803  0.0000
  O2     O2        0.407532950102998    0.201476328737943    0.349049901540595  0.0000
  O2     O2        0.980557190278751    0.004900821975804    0.471476220782553  0.0000
  O2     O2        0.500681097031114    0.992152358229514    0.482101357804220  0.0000
  O2     O2        0.997235995540460    0.050582938236874    0.224326097002722  0.0000
  O2     O2        0.504124152786109    0.971282850045936    0.233950464196061  0.0000
  O2     O2        0.012461879919771    0.009459831474459    0.717134262208796  0.0000
  O2     O2        0.479014501146988    0.994342202657444    0.727354464229316  0.0000
  O3     O3        0.578627303181166    0.215716822201514    0.107338319450967  0.0000
  O3     O3        0.917041299181972    0.800573922725817    0.105768906511736  0.0000
  O2     O2        0.398505403237928    0.196260363770106    0.881520295479094  0.0000
  O2     O2        0.092933913129218    0.811580990401545    0.874433723018765  0.0000
  O2     O2        0.373216042731672    0.852694441007047    0.871746465828028  0.0000
  O2     O2        0.116797088080713    0.157966596917298    0.865284364695260  0.0000
  O2     O2        0.628909617694859    0.893016205901363    0.098274520379747  0.0000
  O2     O2        0.867288062887829    0.123642832807366    0.096724805618353  0.0000
  O2     O2        0.500610610616492    0.967792320633146    0.978867322960051  0.0000
  O2     O2        0.990215695860391    0.041306183353276    0.968832402328934  0.0000
  O3     O3        0.129369686622817    0.508196772603531    0.295767081553235  0.0000
  O2     O2        0.360432388732147    0.525662108917061    0.296910406574389  0.0000
  O2     O2        0.859177933273314    0.480334416173219    0.687815169388196  0.0000
  O2     O2        0.629959162533055    0.524547648575240    0.690035542830066  0.0000
  O3     O3        0.257581126996045    0.274489458192717    0.317585037200752  0.0000
  O2     O2        0.240237998593617    0.744684689318985    0.304758491952505  0.0000
  O2     O2        0.736307373511766    0.274073286020023    0.661121357340374  0.0000
  O2     O2        0.752290263527192    0.730038769292725    0.661493612094631  0.0000
  O3     O3        0.150664678445029    0.231163393706366    0.111669001395751  0.0000
  O2     O2        0.341625952937391    0.769785258246585    0.115648199433958  0.0000
  O2     O2        0.827125755574455    0.237022497522800    0.861609549034130  0.0000
  O2     O2        0.664477821199545    0.773278122438622    0.862784521524622  0.0000
  O3     O3        0.856997615925822    0.743402212012357    0.855184395019378  0.0000
  O3     O3        0.635374671265035    0.265478767697459    0.857069727485158  0.0000
  O2     O2        0.135428690077378    0.749786852630570    0.115049202344535  0.0000
  O2     O2        0.352133684053674    0.273921482984338    0.118226516937464  0.0000
  O3     O3        0.621477426990834    0.552409883009149    0.039458981393423  0.0000
  O3     O3        0.873529303206963    0.461996155686893    0.037680659250452  0.0000
  O2     O2        0.363287222394625    0.520532639507107    0.939177022063265  0.0000
  O2     O2        0.127243727519821    0.488825643513533    0.945657253258844  0.0000
  O3     O3        0.739923827742313    0.301874670624301    0.066610304801774  0.0000
  O3     O3        0.755464258830849    0.713517790549135    0.066017724353335  0.0000
  O2     O2        0.251864904809164    0.284264623110430    0.924945407222485  0.0000
  O2     O2        0.238396820896218    0.725114827365879    0.926544798460746  0.0000
