data_c00246.vasp
_audit_creation_method             Generated by GULP
_audit_author_name                 Salvador R. G. Balestra
_symmetry_space_group_name_H-M     'P 1             '
_symmetry_Int_Tables_number        1

loop_
_symmetry_equiv_pos_site_id
_symmetry_equiv_pos_as_xyz
_cell_length_a                       17.0610
_cell_length_b                        7.6029
_cell_length_c                       10.2846
_cell_angle_alpha                   90.1081
_cell_angle_beta                    90.8504
_cell_angle_gamma                   89.3295

loop_
_atom_site_label
_atom_site_type_symbol
_atom_site_fract_x
_atom_site_fract_y
_atom_site_fract_z
_atom_site_charge
  Ge     Ge        0.160189999999943    0.293909999999983    0.273440000000051  0.0000
  Ge     Ge        0.850807281414143    0.664854026369750    0.013726439126986  0.0000
  Ge     Ge        0.826554152990139    0.254281481284254    0.005725224429614  0.0000
  Si     Si        0.045961616889637    0.007119433109045    0.360243953178557  0.0000
  Si     Si        0.450647997240970    0.009917005820150    0.348872572360296  0.0000
  Si     Si        0.940624177094540    0.989616190893681    0.609156428169129  0.0000
  Si     Si        0.542693321811698    0.013438528476094    0.617261734970289  0.0000
  Si     Si        0.551893759880151    0.005149912291062    0.096863976335664  0.0000
  Si     Si        0.942704942441424    0.980064941177417    0.107039428991033  0.0000
  Si     Si        0.434311074586403    0.000226854694103    0.862311250793071  0.0000
  Si     Si        0.045645863108606    0.007161174309656    0.861963284502469  0.0000
  Si     Si        0.334242195275128    0.722235614741911    0.259093783796721  0.0000
  Si     Si        0.825271895046968    0.277835583815078    0.698047529567106  0.0000
  Si     Si        0.661282524284829    0.720983878835033    0.707361013799503  0.0000
  Si     Si        0.840380721775734    0.686364090768071    0.706924755382564  0.0000
  Si     Si        0.646789634068238    0.320435280297341    0.700524548522315  0.0000
  Si     Si        0.152591687622759    0.706413293016082    0.267764638610970  0.0000
  Si     Si        0.343832209672315    0.317415021049297    0.266173560231253  0.0000
  Si     Si        0.644872972917340    0.321559008912245    0.006151181001132  0.0000
  Si     Si        0.336877851336257    0.314510120144977    0.961152779859477  0.0000
  Si     Si        0.145034855244373    0.695813483935988    0.965914574190861  0.0000
  Si     Si        0.326103836644593    0.714298989373281    0.956241122735557  0.0000
  Si     Si        0.156342500157822    0.291348453092535    0.964629772364374  0.0000
  Si     Si        0.666385503465404    0.715049391410939    0.012514229214521  0.0000
  O3     O3        0.103060491281392    0.170834644686786    0.373906815334752  0.0000
  O2     O2        0.386095124685036    0.856903458448900    0.341828267581166  0.0000
  O2     O2        0.877553980851031    0.149850719082734    0.608285550470851  0.0000
  O2     O2        0.608856932001439    0.861953291298459    0.629807349813660  0.0000
  O2     O2        0.898062715092102    0.801849368606930    0.619509146921341  0.0000
  O2     O2        0.584039436230331    0.203176045970232    0.622814087922274  0.0000
  O2     O2        0.100087176931700    0.832365615107859    0.356514528769517  0.0000
  O2     O2        0.407797142320327    0.199826755504585    0.343221210705526  0.0000
  O2     O2        0.984351615018456    0.992294590873485    0.473590382817392  0.0000
  O2     O2        0.498556431284666    0.991817478078345    0.481537930938207  0.0000
  O2     O2        0.997695170584897    0.032678800477394    0.226250911156838  0.0000
  O2     O2        0.511586111199328    0.987356059771652    0.234010194526623  0.0000
  O2     O2        0.005470462115138    0.015861145713598    0.721558639973197  0.0000
  O2     O2        0.478388750613403    0.994598059271317    0.727584950414754  0.0000
  O2     O2        0.582104537667761    0.203842640857840    0.080172745701802  0.0000
  O3     O3        0.920076935854302    0.777011153965549    0.105064586538834  0.0000
  O2     O2        0.393468248616064    0.191146383841380    0.877315969156634  0.0000
  O2     O2        0.086325654959226    0.815198321130922    0.879791950531625  0.0000
  O2     O2        0.369090288666382    0.848292305253757    0.861825252469740  0.0000
  O2     O2        0.109179691396102    0.161924496874474    0.869333766044568  0.0000
  O2     O2        0.623468524690738    0.865866131887588    0.094830763095429  0.0000
  O3     O3        0.862094751954950    0.090274759730061    0.104915759611459  0.0000
  O2     O2        0.492966815222014    0.956514073481582    0.980503007830825  0.0000
  O2     O2        0.982119006904087    0.043003207205010    0.972410484024706  0.0000
  O3     O3        0.131140596997885    0.508797235537882    0.296668482471038  0.0000
  O2     O2        0.362465989816328    0.523056003522242    0.288697521584370  0.0000
  O2     O2        0.857549189651287    0.477208585826184    0.691628796573200  0.0000
  O2     O2        0.627460211478051    0.526662277782973    0.678506369905022  0.0000
  O3     O3        0.258046491275322    0.273732902436292    0.315462764933006  0.0000
  O2     O2        0.243845359673518    0.743770600935863    0.299741383543871  0.0000
  O2     O2        0.734345955125826    0.276726164452306    0.650486424146160  0.0000
  O2     O2        0.751087708006467    0.729243864952612    0.660948720759566  0.0000
  O3     O3        0.148121813502370    0.232186098345937    0.112796930853693  0.0000
  O2     O2        0.341415553272744    0.766245772538518    0.106462398974320  0.0000
  O3     O3        0.829864479906177    0.202905154144553    0.842655390678093  0.0000
  O2     O2        0.661853346778784    0.765450442962002    0.860173260468867  0.0000
  O3     O3        0.855737432472639    0.739202160829336    0.855010939982117  0.0000
  O2     O2        0.641751756531838    0.274939801167068    0.852771357709356  0.0000
  O2     O2        0.134750586754039    0.750929951305367    0.116078670728069  0.0000
  O2     O2        0.348858087666016    0.271361483985107    0.113154568647278  0.0000
  O2     O2        0.624059962767549    0.526887083750103    0.031305954851029  0.0000
  O1     O1        0.874337963572584    0.448994174103587    0.029532030736557  0.0000
  O2     O2        0.357801961542967    0.516517614341284    0.931023194269968  0.0000
  O2     O2        0.123489070115730    0.491161581369667    0.947639986242119  0.0000
  O3     O3        0.731506689000628    0.282942132334104    0.056897255370516  0.0000
  O3     O3        0.755157431638679    0.701835030546875    0.061373128192226  0.0000
  O2     O2        0.246751856668024    0.280799964065148    0.922497222843375  0.0000
  O2     O2        0.233869002950309    0.727194231167041    0.922940797143341  0.0000
