data_c00220.vasp
_audit_creation_method             Generated by GULP
_audit_author_name                 Salvador R. G. Balestra
_symmetry_space_group_name_H-M     'P 1             '
_symmetry_Int_Tables_number        1

loop_
_symmetry_equiv_pos_site_id
_symmetry_equiv_pos_as_xyz
_cell_length_a                       17.1460
_cell_length_b                        7.6098
_cell_length_c                       10.2796
_cell_angle_alpha                   90.6104
_cell_angle_beta                    90.4245
_cell_angle_gamma                   89.8579

loop_
_atom_site_label
_atom_site_type_symbol
_atom_site_fract_x
_atom_site_fract_y
_atom_site_fract_z
_atom_site_charge
  Ge     Ge        0.160189999999943    0.293909999999983    0.273440000000051  0.0000
  Ge     Ge        0.840205579621923    0.673383503478120    0.703638416848927  0.0000
  Ge     Ge        0.341166103544806    0.333081889075996    0.958890089614391  0.0000
  Si     Si        0.041895657413710    0.007550595022418    0.359996957289326  0.0000
  Si     Si        0.446342794066770    0.013919610498898    0.355876029051784  0.0000
  Si     Si        0.943920742534991    0.978750232148392    0.615884514279156  0.0000
  Si     Si        0.540988693145079    0.993691962420556    0.620683209048334  0.0000
  Si     Si        0.550717387774634    0.007942861469485    0.106103826846272  0.0000
  Si     Si        0.936675383980418    0.001385980918575    0.105456982312281  0.0000
  Si     Si        0.436266484271959    0.015325317994263    0.866382276630347  0.0000
  Si     Si        0.048383380838451    0.003499404031306    0.866489961500343  0.0000
  Si     Si        0.328940820208851    0.727326471503990    0.271168721272558  0.0000
  Si     Si        0.825905565391065    0.263406313050188    0.715850555643215  0.0000
  Si     Si        0.657033964764726    0.703790048154739    0.704688516771418  0.0000
  Si     Si        0.646414227564864    0.299462656728370    0.715270401646086  0.0000
  Si     Si        0.148628103298755    0.705413683726130    0.275545124530026  0.0000
  Si     Si        0.342162059780580    0.320755473707958    0.270489079987245  0.0000
  Si     Si        0.646166212265772    0.319941432319597    0.018362437767052  0.0000
  Si     Si        0.841538408315331    0.686993628623932    0.013369704593112  0.0000
  Si     Si        0.145324593001169    0.696102787997867    0.973817862827928  0.0000
  Si     Si        0.325206677858945    0.735860811407804    0.967764503660842  0.0000
  Si     Si        0.159098064752704    0.294933584771493    0.963424445305955  0.0000
  Si     Si        0.661227643856046    0.717470729838094    0.009835594443799  0.0000
  Si     Si        0.825546000295485    0.288269744086578    0.020699193710993  0.0000
  O3     O3        0.101852570515664    0.166786132623933    0.368042758090403  0.0000
  O2     O2        0.380614224111800    0.862365556449843    0.355291116360722  0.0000
  O2     O2        0.871888412818896    0.112020736830591    0.639567951645939  0.0000
  O2     O2        0.601014669510743    0.830583778878885    0.622447906814641  0.0000
  O3     O3        0.907427632812291    0.786239675440341    0.614329857135186  0.0000
  O2     O2        0.587206573230155    0.176620920711559    0.635796094885551  0.0000
  O2     O2        0.092767836524881    0.828583767211387    0.361787599267142  0.0000
  O2     O2        0.405515262825720    0.204865839987563    0.349017588136638  0.0000
  O2     O2        0.982569287517643    0.015461370413817    0.478302456042181  0.0000
  O2     O2        0.495663512295909    0.997555873017205    0.486109335234789  0.0000
  O2     O2        0.991867593832618    0.022248458640767    0.228600788209393  0.0000
  O2     O2        0.506012414154434    0.983936240536401    0.239041488848766  0.0000
  O2     O2        0.010288365782948    0.004404110378021    0.724801180131659  0.0000
  O2     O2        0.477674666347943    0.968375354454595    0.732443576398686  0.0000
  O2     O2        0.588268684437919    0.202890529976519    0.103395974413401  0.0000
  O2     O2        0.897288263810482    0.808699117898946    0.103195579230201  0.0000
  O3     O3        0.406609739313664    0.214026714276085    0.867635867552715  0.0000
  O2     O2        0.089424296221915    0.814529052590277    0.885430057478496  0.0000
  O2     O2        0.360730313418146    0.890944590176304    0.882741398825980  0.0000
  O2     O2        0.109784733710663    0.162387146302022    0.872750889248692  0.0000
  O2     O2        0.618293003437229    0.861626117960570    0.097578459156015  0.0000
  O2     O2        0.870359527288902    0.152143574687101    0.112563304465924  0.0000
  O2     O2        0.493442283576225    0.975162854033966    0.985802069249241  0.0000
  O2     O2        0.983955597480063    0.036520139160960    0.975075197156904  0.0000
  O3     O3        0.127379083493043    0.505909965029065    0.297430948131552  0.0000
  O2     O2        0.359577237919072    0.528731065574366    0.290684939999118  0.0000
  O3     O3        0.858154787713535    0.452612717054256    0.679870509528390  0.0000
  O2     O2        0.629109265069748    0.502521361733813    0.683523349933136  0.0000
  O3     O3        0.256485937190250    0.279599110980854    0.321974463909706  0.0000
  O2     O2        0.238946051926135    0.741202885323461    0.315348650902019  0.0000
  O2     O2        0.734714963109619    0.251514976383582    0.675865942375139  0.0000
  O3     O3        0.745313344940150    0.721223890523502    0.658905768279145  0.0000
  O3     O3        0.156745722029366    0.231908079878469    0.111718322460663  0.0000
  O2     O2        0.334644700729443    0.780928659946131    0.120668681965424  0.0000
  O2     O2        0.833751564158301    0.232488018847930    0.870237485830746  0.0000
  O2     O2        0.652518943471702    0.757906589504275    0.857020521638264  0.0000
  O3     O3        0.855802633970345    0.732039370583978    0.864352282357421  0.0000
  O2     O2        0.633907336523022    0.264582213524411    0.867973427507691  0.0000
  O2     O2        0.135883042118147    0.754923132430478    0.123902915453386  0.0000
  O3     O3        0.349080098674672    0.271505534638247    0.119175363390825  0.0000
  O2     O2        0.625620116954398    0.525136599597018    0.039557200340267  0.0000
  O2     O2        0.861181550100915    0.483061132988813    0.041477506019773  0.0000
  O3     O3        0.365417802724053    0.550695334216888    0.938008154095570  0.0000
  O2     O2        0.122256611679109    0.491949842066676    0.956353502353793  0.0000
  O2     O2        0.735177506666552    0.285558325006192    0.061189123379820  0.0000
  O2     O2        0.751758541072148    0.723724570749541    0.049209209323436  0.0000
  O3     O3        0.246138354343278    0.298167865858009    0.910348283907515  0.0000
  O2     O2        0.234171616282540    0.722009713185304    0.930073071399973  0.0000
