data_c00215.vasp
_audit_creation_method             Generated by GULP
_audit_author_name                 Salvador R. G. Balestra
_symmetry_space_group_name_H-M     'P 1             '
_symmetry_Int_Tables_number        1

loop_
_symmetry_equiv_pos_site_id
_symmetry_equiv_pos_as_xyz
_cell_length_a                       17.2067
_cell_length_b                        7.6433
_cell_length_c                       10.1831
_cell_angle_alpha                   90.5990
_cell_angle_beta                    90.0630
_cell_angle_gamma                   89.7882

loop_
_atom_site_label
_atom_site_type_symbol
_atom_site_fract_x
_atom_site_fract_y
_atom_site_fract_z
_atom_site_charge
  Ge     Ge        0.160189999999943    0.293909999999983    0.273440000000051  0.0000
  Ge     Ge        0.661142165677165    0.698032480305149    0.702173100398435  0.0000
  Ge     Ge        0.845241757797216    0.668617836551448    0.019258692255949  0.0000
  Si     Si        0.046572291912923    0.004439098623099    0.353736171821878  0.0000
  Si     Si        0.448189397971791    0.008199357532047    0.360835074470350  0.0000
  Si     Si        0.947071698692659    0.977671699918439    0.609991193117494  0.0000
  Si     Si        0.545243917506549    0.990742946761067    0.620419465559376  0.0000
  Si     Si        0.555303667146788    0.994460669895240    0.116371531690876  0.0000
  Si     Si        0.944569304735133    0.983092376628234    0.099343400657920  0.0000
  Si     Si        0.441426455736352    0.992195698730067    0.876638478846604  0.0000
  Si     Si        0.055211635351366    0.990623695344968    0.854962062718462  0.0000
  Si     Si        0.335743118472881    0.713633681086911    0.262123789578112  0.0000
  Si     Si        0.833871466025648    0.271627212863172    0.705573712603201  0.0000
  Si     Si        0.842598657929704    0.676216849500715    0.704138448055503  0.0000
  Si     Si        0.654242912711313    0.288230874632751    0.703100291519620  0.0000
  Si     Si        0.155736568456733    0.704494628241419    0.264573736503962  0.0000
  Si     Si        0.342515226037223    0.310923402701750    0.269006544177667  0.0000
  Si     Si        0.652876359522965    0.299166626634149    0.008241987422218  0.0000
  Si     Si        0.340169928831371    0.303069091709251    0.960088758806877  0.0000
  Si     Si        0.154114265017749    0.685657958019686    0.958662204202429  0.0000
  Si     Si        0.333471668241847    0.699425445324554    0.955345340234556  0.0000
  Si     Si        0.160972828031897    0.283863255107278    0.961108051965973  0.0000
  Si     Si        0.663558951582121    0.699465199782130    0.015762989690913  0.0000
  Si     Si        0.832332208096399    0.267250835629737    0.012387458095978  0.0000
  O3     O3        0.101400321313535    0.170857913774582    0.372199830297361  0.0000
  O2     O2        0.388096002323821    0.848807352485918    0.343078617336402  0.0000
  O2     O2        0.886025344312320    0.137482388602580    0.621862356687961  0.0000
  O3     O3        0.600639663997099    0.823664703813286    0.608047629881597  0.0000
  O2     O2        0.904199309636265    0.792425374706748    0.624694395420245  0.0000
  O2     O2        0.600082643898456    0.161252432267274    0.617298124925372  0.0000
  O2     O2        0.102060674235741    0.834420220294419    0.348491453960522  0.0000
  O2     O2        0.404307550568388    0.193159374890922    0.346152769295742  0.0000
  O2     O2        0.983395555109727    0.983326717831130    0.466180051157906  0.0000
  O2     O2        0.482044772280857    0.999259561884918    0.506343792667726  0.0000
  O2     O2        0.000561009873468    0.030816482685970    0.218168374318487  0.0000
  O2     O2        0.519898083927162    0.993099246241232    0.261240729745983  0.0000
  O2     O2        0.017505383923209    0.997815076884449    0.712067087581646  0.0000
  O2     O2        0.499707316263664    0.980331520129482    0.757040064455923  0.0000
  O2     O2        0.598736509990686    0.178879186183867    0.097098793624145  0.0000
  O3     O3        0.910887230011974    0.789439272846641    0.109464258677924  0.0000
  O2     O2        0.395475558158015    0.176400375937043    0.875395795560737  0.0000
  O2     O2        0.099589495269460    0.805223383288474    0.868934204480104  0.0000
  O2     O2        0.380915969289015    0.831805864554761    0.865222717587392  0.0000
  O2     O2        0.114014241234390    0.152995733855804    0.866629451706594  0.0000
  O2     O2        0.613690253199270    0.831020441259054    0.106064842981786  0.0000
  O2     O2        0.871348365841596    0.116188885313061    0.098106229340910  0.0000
  O2     O2        0.486936289676357    0.971415805319289    0.012033251145162  0.0000
  O2     O2        0.988737197632568    0.009275800234441    0.962808286957742  0.0000
  O3     O3        0.132918999625597    0.508736875129336    0.295972989025460  0.0000
  O2     O2        0.361652547349851    0.515620114756394    0.294472274047208  0.0000
  O2     O2        0.862540803368931    0.469913836314480    0.683668390198883  0.0000
  O3     O3        0.630510200077040    0.485634524072802    0.679208632377945  0.0000
  O3     O3        0.256469245156462    0.269921299595111    0.317324598173347  0.0000
  O2     O2        0.245739115158861    0.740154639702924    0.301682185398654  0.0000
  O2     O2        0.744053008441347    0.255204332302487    0.661626085482850  0.0000
  O3     O3        0.756640559122487    0.714316119065979    0.652025695676822  0.0000
  O3     O3        0.150047163649085    0.230546175790452    0.110999882228598  0.0000
  O2     O2        0.344908746233527    0.750414199677137    0.107771668284519  0.0000
  O2     O2        0.840779701585171    0.222379605912369    0.858027745102507  0.0000
  O3     O3        0.658905701226384    0.759468897790271    0.865597109230176  0.0000
  O3     O3        0.849689143871814    0.726230808639859    0.856576247466498  0.0000
  O2     O2        0.643404750667584    0.241302825364573    0.856671523135092  0.0000
  O2     O2        0.142416425000043    0.742280646619901    0.110076225560175  0.0000
  O2     O2        0.349281940203980    0.265661749404563    0.114325504759351  0.0000
  O2     O2        0.628927760195114    0.502222456783726    0.025939407979953  0.0000
  O3     O3        0.870921755973320    0.452858863785023    0.042072344514816  0.0000
  O2     O2        0.363929141785102    0.502273009252904    0.928588273662311  0.0000
  O2     O2        0.130559003241895    0.482739644325880    0.940229180867005  0.0000
  O2     O2        0.741929985970444    0.275448538462311    0.052265063896130  0.0000
  O3     O3        0.750719322917850    0.701901302412713    0.069014302205755  0.0000
  O2     O2        0.251123355312796    0.270487098833873    0.919927743609259  0.0000
  O2     O2        0.243133639968151    0.713649702161448    0.916744394484708  0.0000
