data_c00205.vasp
_audit_creation_method             Generated by GULP
_audit_author_name                 Salvador R. G. Balestra
_symmetry_space_group_name_H-M     'P 1             '
_symmetry_Int_Tables_number        1

loop_
_symmetry_equiv_pos_site_id
_symmetry_equiv_pos_as_xyz
_cell_length_a                       17.1482
_cell_length_b                        7.6373
_cell_length_c                       10.2199
_cell_angle_alpha                   89.7858
_cell_angle_beta                    89.9436
_cell_angle_gamma                   89.7206

loop_
_atom_site_label
_atom_site_type_symbol
_atom_site_fract_x
_atom_site_fract_y
_atom_site_fract_z
_atom_site_charge
  Ge     Ge        0.160189999999943    0.293909999999983    0.273440000000051  0.0000
  Ge     Ge        0.332895254350535    0.739972872926380    0.275959932275276  0.0000
  Ge     Ge        0.665643936883363    0.725445924646761    0.024561133818488  0.0000
  Si     Si        0.041943867858542    0.007318219024664    0.355819489864844  0.0000
  Si     Si        0.449240661267774    0.027643624417805    0.362324084617576  0.0000
  Si     Si        0.946780727032800    0.006477615793610    0.617078376483916  0.0000
  Si     Si        0.550407582978580    0.025155953257524    0.617378638409595  0.0000
  Si     Si        0.552568914090380    0.013457331620266    0.107868656983236  0.0000
  Si     Si        0.944666815422167    0.007203615670607    0.095770531481476  0.0000
  Si     Si        0.443685661742066    0.015824969932581    0.865281487516480  0.0000
  Si     Si        0.058773731621276    0.012133712530766    0.856736254985341  0.0000
  Si     Si        0.834107138552210    0.302496378617436    0.710163542336988  0.0000
  Si     Si        0.663005150820635    0.730842720399304    0.713464459888441  0.0000
  Si     Si        0.840858838093222    0.703027170668958    0.713490675455605  0.0000
  Si     Si        0.655068981774996    0.324793525461955    0.712476977984135  0.0000
  Si     Si        0.150043898926528    0.708571708753807    0.270628558527644  0.0000
  Si     Si        0.342361363137508    0.327169920701774    0.281020789679951  0.0000
  Si     Si        0.651175861643641    0.323091629845250    0.016556781664316  0.0000
  Si     Si        0.846871270784702    0.691388607422184    0.022271055592670  0.0000
  Si     Si        0.346388788576046    0.328764449909170    0.972903963823728  0.0000
  Si     Si        0.153691318959809    0.699835425426727    0.964681938483897  0.0000
  Si     Si        0.335798970213542    0.727806019548728    0.965544242451266  0.0000
  Si     Si        0.165002629820106    0.299436095524622    0.962360636653514  0.0000
  Si     Si        0.831986156664804    0.297169710304368    0.015979772215182  0.0000
  O3     O3        0.102624016450846    0.164224426887844    0.370293847849653  0.0000
  O3     O3        0.388090243508329    0.871113928911039    0.374729030059479  0.0000
  O2     O2        0.887975594045965    0.170542331511679    0.628981259176524  0.0000
  O2     O2        0.608339305120246    0.859254728410052    0.628903097269370  0.0000
  O2     O2        0.901055277890398    0.825809275143257    0.638171690877549  0.0000
  O2     O2        0.597574747241945    0.206576111040943    0.627453068580023  0.0000
  O2     O2        0.088178494536034    0.823465107891827    0.351651327529007  0.0000
  O2     O2        0.403249024082552    0.212119295975870    0.364986060859511  0.0000
  O2     O2        0.979883302527624    0.005344303512661    0.471615753421616  0.0000
  O2     O2        0.513173223075668    0.020328948817035    0.474780628000013  0.0000
  O2     O2        0.996272644910885    0.038962403313086    0.221381880880240  0.0000
  O2     O2        0.491358742279002    0.007365026403061    0.223495129740573  0.0000
  O2     O2        0.019501925129848    0.020904812090375    0.715171437250052  0.0000
  O2     O2        0.480611531894363    0.017424681250010    0.721856624307542  0.0000
  O2     O2        0.596377034286176    0.199620643022835    0.103113492952185  0.0000
  O2     O2        0.910187180037966    0.810626847501887    0.095385233164422  0.0000
  O2     O2        0.404440613433833    0.204442296684882    0.892691389926078  0.0000
  O2     O2        0.099818595298122    0.823007403010352    0.874821881030663  0.0000
  O2     O2        0.379582768532774    0.862160006591819    0.869420098181713  0.0000
  O2     O2        0.122324792988636    0.166410649876825    0.864685610531858  0.0000
  O3     O3        0.616320549969955    0.863382320001241    0.126792896989013  0.0000
  O2     O2        0.874355083067189    0.148015540381615    0.099953826800540  0.0000
  O2     O2        0.510231507678533    0.973258963138915    0.970613541953752  0.0000
  O2     O2        0.993581148945312    0.044074461819378    0.965662323574376  0.0000
  O3     O3        0.144762427145451    0.509777849844447    0.315177552654344  0.0000
  O3     O3        0.347161996638686    0.525844669323599    0.324857422946093  0.0000
  O2     O2        0.861832919553909    0.500996548851388    0.682483741797564  0.0000
  O2     O2        0.635419194940180    0.530158442701185    0.693363881615823  0.0000
  O3     O3        0.257059566865993    0.248219012680956    0.302418051450164  0.0000
  O3     O3        0.235224996376786    0.787205543600476    0.294243278151655  0.0000
  O2     O2        0.743784026027355    0.284171491856799    0.668212346002884  0.0000
  O2     O2        0.752990004830004    0.746936702324102    0.666619639538888  0.0000
  O3     O3        0.140900945667474    0.257333006759574    0.110054405973537  0.0000
  O3     O3        0.358147396326193    0.769502636062531    0.113838718542437  0.0000
  O2     O2        0.841254379390801    0.254736078779390    0.862801448819482  0.0000
  O3     O3        0.657989018690209    0.787951318294702    0.863066399624380  0.0000
  O2     O2        0.846982561625851    0.737172455758860    0.868047522359180  0.0000
  O2     O2        0.642721736185182    0.272830710175476    0.863827438934990  0.0000
  O2     O2        0.130371880030619    0.725026118305458    0.115766698497552  0.0000
  O2     O2        0.363294826597155    0.311687036439785    0.126710692113806  0.0000
  O3     O3        0.625911705730961    0.519666093962144    0.041601273943832  0.0000
  O2     O2        0.869176391031866    0.487321254400830    0.045760862583091  0.0000
  O2     O2        0.360887702399188    0.529198560368038    0.928910410618598  0.0000
  O2     O2        0.140469356062666    0.498275194908912    0.924536779587504  0.0000
  O2     O2        0.741574441097109    0.298190624719167    0.057044892513532  0.0000
  O3     O3        0.761238503092682    0.727417264456776    0.075761232859944  0.0000
  O2     O2        0.257628310933061    0.274487474141767    0.944625456867142  0.0000
  O2     O2        0.243466025265334    0.752015054972645    0.945380778941275  0.0000
