data_c00223.vasp
_audit_creation_method             Generated by GULP
_audit_author_name                 Salvador R. G. Balestra
_symmetry_space_group_name_H-M     'P 1             '
_symmetry_Int_Tables_number        1

loop_
_symmetry_equiv_pos_site_id
_symmetry_equiv_pos_as_xyz
_cell_length_a                       17.1511
_cell_length_b                        7.6054
_cell_length_c                       10.2438
_cell_angle_alpha                   89.4220
_cell_angle_beta                    90.8234
_cell_angle_gamma                   89.1908

loop_
_atom_site_label
_atom_site_type_symbol
_atom_site_fract_x
_atom_site_fract_y
_atom_site_fract_z
_atom_site_charge
  Ge     Ge        0.160189999999943    0.293909999999983    0.273440000000051  0.0000
  Ge     Ge        0.646699900059259    0.327676040177785    0.697259564063068  0.0000
  Ge     Ge        0.849303338902468    0.665582112412506    0.019801482630933  0.0000
  Si     Si        0.043513287976547    0.009050999542781    0.353255004465956  0.0000
  Si     Si        0.449036232287871    0.002646810468655    0.352704897652467  0.0000
  Si     Si        0.944669965859664    0.997998775941972    0.609226674168409  0.0000
  Si     Si        0.542374109383829    0.022564642176009    0.616142402122039  0.0000
  Si     Si        0.555275229297018    0.997483023902428    0.102954858359985  0.0000
  Si     Si        0.944097970746815    0.983481097953861    0.096521490682661  0.0000
  Si     Si        0.439159481540078    0.000926929691163    0.865321625097085  0.0000
  Si     Si        0.054159020650514    0.003260750810155    0.855192414713907  0.0000
  Si     Si        0.333285942100586    0.718026931370808    0.265324342478916  0.0000
  Si     Si        0.828913551935081    0.291188993718909    0.696113306800425  0.0000
  Si     Si        0.663723577955958    0.736223837166868    0.716445819714186  0.0000
  Si     Si        0.842139318770929    0.695971299240353    0.709832032340014  0.0000
  Si     Si        0.152141279972128    0.707347090417101    0.263505758895426  0.0000
  Si     Si        0.342773701511785    0.312682599572353    0.275210564566944  0.0000
  Si     Si        0.648431795033622    0.310682287370835    0.007168092497914  0.0000
  Si     Si        0.340709537603252    0.311653347680229    0.968506564666189  0.0000
  Si     Si        0.151488841519011    0.692813880247146    0.960621685879052  0.0000
  Si     Si        0.331890373146881    0.710698048275443    0.961435826025024  0.0000
  Si     Si        0.161228730357539    0.289005058710184    0.963522778438974  0.0000
  Si     Si        0.667569675478138    0.705955113950070    0.023419665958712  0.0000
  Si     Si        0.828135687394151    0.264707767493669    0.002565938758624  0.0000
  O3     O3        0.100929596068087    0.170563412459333    0.370379471814280  0.0000
  O2     O2        0.384198655091504    0.851188926964035    0.349563389300565  0.0000
  O2     O2        0.884936939267567    0.163057936711974    0.615252640711846  0.0000
  O2     O2        0.615623535168751    0.892491538185397    0.646176511268503  0.0000
  O2     O2        0.899414630960111    0.815793426659210    0.625536066267559  0.0000
  O3     O3        0.577774752152776    0.215302236035786    0.608784580788172  0.0000
  O2     O2        0.097223855354909    0.833677670881636    0.346726740209942  0.0000
  O2     O2        0.405959194083051    0.193118282783745    0.354216219649777  0.0000
  O2     O2        0.982840823261755    0.994210124375723    0.468483770591699  0.0000
  O2     O2        0.501901748700949    0.974315696704027    0.480230572813947  0.0000
  O2     O2        0.993978841852582    0.040586049228419    0.220684499264744  0.0000
  O2     O2        0.504484523278253    0.985765308805553    0.230284876532846  0.0000
  O2     O2        0.013939730454167    0.017950907238736    0.714452153054533  0.0000
  O2     O2        0.476431636235203    0.003129699373351    0.724310446311634  0.0000
  O2     O2        0.594475368414958    0.188748431958121    0.096569732837799  0.0000
  O3     O3        0.917417190090320    0.783301935994732    0.107248079275584  0.0000
  O2     O2        0.398061674994576    0.189279805750791    0.887266419981954  0.0000
  O2     O2        0.096927607845460    0.813007433859463    0.867070137858612  0.0000
  O2     O2        0.376501326191922    0.845257950863817    0.869100747004710  0.0000
  O2     O2        0.115598999636084    0.160636946047567    0.866856249331570  0.0000
  O2     O2        0.620794475680927    0.844202412903960    0.110836565599542  0.0000
  O2     O2        0.865391455146621    0.102449752170300    0.083717996149366  0.0000
  O2     O2        0.504038402717017    0.960863648673462    0.974796171508495  0.0000
  O2     O2        0.991061942033950    0.025585018076345    0.966398974816745  0.0000
  O3     O3        0.131398089699653    0.509179395388109    0.293690591639132  0.0000
  O2     O2        0.360229216826456    0.518319999378423    0.298476866044916  0.0000
  O2     O2        0.859825335306482    0.490499453793872    0.682659086265743  0.0000
  O3     O3        0.627445864541932    0.550149698166984    0.681967345500039  0.0000
  O3     O3        0.256654175267321    0.270067803388526    0.321362734353815  0.0000
  O2     O2        0.242536825253558    0.743751725677462    0.300128781948410  0.0000
  O3     O3        0.740479007123201    0.283769277103287    0.645489113885594  0.0000
  O2     O2        0.752861468989546    0.741164262742110    0.667595131281542  0.0000
  O3     O3        0.151133241432401    0.230794150597966    0.112440595829275  0.0000
  O2     O2        0.344502115458477    0.761649076050959    0.112438835562567  0.0000
  O2     O2        0.830306025224978    0.231186727555124    0.847492082253660  0.0000
  O2     O2        0.666166256850531    0.765633162604375    0.871946302349048  0.0000
  O3     O3        0.856704721215929    0.737334777245181    0.860347661289399  0.0000
  O3     O3        0.634496329756659    0.262370895176816    0.857599499012405  0.0000
  O2     O2        0.137535409519374    0.749798117206419    0.109726917212182  0.0000
  O2     O2        0.349653774927941    0.268421353234199    0.121889648275912  0.0000
  O2     O2        0.627429306649845    0.514618391073268    0.034500319436956  0.0000
  O3     O3        0.871722793096620    0.444463684905356    0.034360378434639  0.0000
  O2     O2        0.363662108050954    0.512888018842291    0.938480883113731  0.0000
  O2     O2        0.129134609173978    0.489158088367273    0.943576217408421  0.0000
  O2     O2        0.738839088489519    0.279834256400566    0.046115849027151  0.0000
  O3     O3        0.755675569885346    0.697827502634093    0.074478055217509  0.0000
  O2     O2        0.251871994878052    0.278935189481989    0.924954482151505  0.0000
  O2     O2        0.240888235712478    0.722342153518839    0.923389735368536  0.0000
