data_c00254.vasp
_audit_creation_method             Generated by GULP
_audit_author_name                 Salvador R. G. Balestra
_symmetry_space_group_name_H-M     'P 1             '
_symmetry_Int_Tables_number        1

loop_
_symmetry_equiv_pos_site_id
_symmetry_equiv_pos_as_xyz
_cell_length_a                       17.0781
_cell_length_b                        7.6196
_cell_length_c                       10.2509
_cell_angle_alpha                   90.8213
_cell_angle_beta                    90.6909
_cell_angle_gamma                   90.0184

loop_
_atom_site_label
_atom_site_type_symbol
_atom_site_fract_x
_atom_site_fract_y
_atom_site_fract_z
_atom_site_charge
  Ge     Ge        0.160189999999943    0.293909999999983    0.273440000000051  0.0000
  Ge     Ge        0.149723678156745    0.680211055592191    0.954019349001494  0.0000
  Ge     Ge        0.667300996285995    0.725444348895909    0.019616763408311  0.0000
  Si     Si        0.043575052949631    0.007666446554516    0.354753147847982  0.0000
  Si     Si        0.445926897915329    0.024854141398930    0.358339690452671  0.0000
  Si     Si        0.943540794239860    0.999368633958026    0.609487878038989  0.0000
  Si     Si        0.545433914376491    0.011265593207792    0.618907359024914  0.0000
  Si     Si        0.557592703182529    0.012572127957002    0.113855700873686  0.0000
  Si     Si        0.945940681238390    0.004513509696547    0.092843869182322  0.0000
  Si     Si        0.445575973503973    0.997051289109418    0.874080368474669  0.0000
  Si     Si        0.055493714352633    0.994027271596805    0.850983371873487  0.0000
  Si     Si        0.330508902487216    0.730591165271517    0.266095458157284  0.0000
  Si     Si        0.830277742664823    0.291839792417718    0.701839710107216  0.0000
  Si     Si        0.661311253273569    0.724025037832626    0.709660858144108  0.0000
  Si     Si        0.840409355161796    0.693765336717471    0.706727670973945  0.0000
  Si     Si        0.650302442609023    0.317201079740092    0.707490549762111  0.0000
  Si     Si        0.149231085894883    0.707229753013144    0.260879521471335  0.0000
  Si     Si        0.342991664336359    0.330504095628214    0.282388034506322  0.0000
  Si     Si        0.651094211814632    0.322402567589071    0.010236060920900  0.0000
  Si     Si        0.849668166788638    0.685307650450462    0.013658990545724  0.0000
  Si     Si        0.346430843791537    0.311487544109087    0.976814870459935  0.0000
  Si     Si        0.333436279052151    0.707380719962346    0.960374314763425  0.0000
  Si     Si        0.166236617466829    0.271227696794950    0.965677417206829  0.0000
  Si     Si        0.832796494776926    0.290442259371085    0.006192076532423  0.0000
  O3     O3        0.102986110624634    0.168607063256510    0.372660950495832  0.0000
  O2     O2        0.379884953863830    0.874160206135480    0.347253060331407  0.0000
  O2     O2        0.881166339870345    0.157770291143206    0.616339163312323  0.0000
  O2     O2        0.607330939597733    0.851677800862584    0.623928919952567  0.0000
  O2     O2        0.900131187886607    0.814326556982530    0.629187173645834  0.0000
  O2     O2        0.591059635540616    0.197321508619058    0.622513469456704  0.0000
  O2     O2        0.093847834441974    0.828904476303123    0.349728692904024  0.0000
  O2     O2        0.404169634426432    0.214822469799392    0.365658355089243  0.0000
  O2     O2        0.980827780996095    0.996613193229501    0.468006264546589  0.0000
  O2     O2        0.497943673074155    0.994598138437296    0.485160755673886  0.0000
  O2     O2        0.996274324715551    0.039765857635840    0.221166303046767  0.0000
  O2     O2        0.501929193914605    0.014849787043584    0.235568140878656  0.0000
  O2     O2        0.013204058392399    0.028748825744680    0.713796168840604  0.0000
  O2     O2        0.483063474848682    0.999744132025171    0.733127802317920  0.0000
  O2     O2        0.597285716905073    0.202623022741350    0.099232829479529  0.0000
  O2     O2        0.913741851022749    0.804793251389112    0.089637619594232  0.0000
  O2     O2        0.405496596989107    0.184885484127927    0.901191373032537  0.0000
  O3     O3        0.086310865456215    0.796038262732092    0.855777420149142  0.0000
  O2     O2        0.382529839433990    0.840754053560510    0.874362758532583  0.0000
  O2     O2        0.129141816793880    0.125676718367735    0.867958343359638  0.0000
  O3     O3        0.624320677394172    0.868049656966179    0.127553482066148  0.0000
  O2     O2        0.874320191905071    0.142548359608942    0.091692817200619  0.0000
  O2     O2        0.510824395535271    0.954999724806753    0.982566866984653  0.0000
  O2     O2        0.996703027391816    0.041387033583082    0.966701261291528  0.0000
  O3     O3        0.126585013889045    0.506799862166454    0.278872494067285  0.0000
  O2     O2        0.363045381811452    0.537040749908273    0.299778877551295  0.0000
  O2     O2        0.859461261830218    0.489878469641958    0.675872423091744  0.0000
  O2     O2        0.631890416066942    0.523166548340611    0.689909551795290  0.0000
  O3     O3        0.256033231111886    0.292684395593304    0.328950108764650  0.0000
  O2     O2        0.239600513487304    0.741668563643774    0.305257438984661  0.0000
  O2     O2        0.738809211881458    0.275488924094350    0.662659497945697  0.0000
  O2     O2        0.751467863632238    0.737460466164069    0.663591937247173  0.0000
  O3     O3        0.157538394700023    0.214702872554632    0.114819349101040  0.0000
  O2     O2        0.336350017833173    0.767664012727292    0.112203740659146  0.0000
  O2     O2        0.840318989846446    0.243098942438059    0.853325390001856  0.0000
  O3     O3        0.657502185464320    0.785717287137366    0.858956570235009  0.0000
  O2     O2        0.850877694404067    0.732361729908972    0.860527124846602  0.0000
  O2     O2        0.639300928993760    0.267359728160640    0.858416699407736  0.0000
  O3     O3        0.138130519349584    0.759768586820278    0.110947507988048  0.0000
  O2     O2        0.351076136364478    0.273762894179247    0.130623989355701  0.0000
  O3     O3        0.626600980398778    0.520053889339520    0.035706527215984  0.0000
  O2     O2        0.872099064980161    0.480936657336364    0.034366912027356  0.0000
  O2     O2        0.370287890462673    0.511929452457290    0.947433856795076  0.0000
  O3     O3        0.126958713126947    0.460073253211043    0.945368601630631  0.0000
  O2     O2        0.742461887399440    0.296687189888851    0.047347430760549  0.0000
  O3     O3        0.764401334243651    0.722248102254306    0.066714925741509  0.0000
  O2     O2        0.257681840217618    0.281262327324833    0.928343310519359  0.0000
  O3     O3        0.245481173262171    0.708176454066036    0.907795485474281  0.0000
