data_c00262.vasp
_audit_creation_method             Generated by GULP
_audit_author_name                 Salvador R. G. Balestra
_symmetry_space_group_name_H-M     'P 1             '
_symmetry_Int_Tables_number        1

loop_
_symmetry_equiv_pos_site_id
_symmetry_equiv_pos_as_xyz
_cell_length_a                       16.9648
_cell_length_b                        7.6320
_cell_length_c                       10.3114
_cell_angle_alpha                   89.9354
_cell_angle_beta                    90.0582
_cell_angle_gamma                   90.2756

loop_
_atom_site_label
_atom_site_type_symbol
_atom_site_fract_x
_atom_site_fract_y
_atom_site_fract_z
_atom_site_charge
  Ge     Ge        0.660660000000007    0.294089999999983    0.017439999999965  0.0000
  Ge     Ge        0.822759100783089    0.743890251381019    0.019728471053485  0.0000
  Ge     Ge        0.326950571147591    0.305817960380015    0.969859161856486  0.0000
  Si     Si        0.044264931867009    0.022417459629338    0.368097678822277  0.0000
  Si     Si        0.443517464131021    0.009908054940663    0.368813577144743  0.0000
  Si     Si        0.945487871418675    0.023080084419272    0.628474780729197  0.0000
  Si     Si        0.547014203177363    0.002351953128342    0.623921741485648  0.0000
  Si     Si        0.546665035666048    0.009221430157375    0.114231367474580  0.0000
  Si     Si        0.934668618672121    0.027296674278827    0.119924462840206  0.0000
  Si     Si        0.438598558138239    0.022534692517532    0.873920320771774  0.0000
  Si     Si        0.046073383537561    0.014202082612719    0.883722780964029  0.0000
  Si     Si        0.150029167267496    0.327458545123781    0.281489847013293  0.0000
  Si     Si        0.338559791204744    0.707956341086430    0.279705113403138  0.0000
  Si     Si        0.842133882992224    0.330516591745149    0.718322153940483  0.0000
  Si     Si        0.649236180496001    0.695149215764615    0.707966492261354  0.0000
  Si     Si        0.829206056645942    0.733904852721610    0.712323413022509  0.0000
  Si     Si        0.661626590863467    0.292533464495292    0.709775001207745  0.0000
  Si     Si        0.156741680932972    0.728335085498599    0.281403467342999  0.0000
  Si     Si        0.330901140384501    0.302419195705950    0.277824173896207  0.0000
  Si     Si        0.158105535622118    0.729164682897211    0.979254181489124  0.0000
  Si     Si        0.341843960618656    0.709755046929577    0.979291283023301  0.0000
  Si     Si        0.142526489225422    0.332220254948418    0.976867326141052  0.0000
  Si     Si        0.638113038596029    0.692457359282230    0.011671599323901  0.0000
  Si     Si        0.845843767790008    0.345451580599345    0.021326215347052  0.0000
  O2     O2        0.092588820516655    0.204269368454393    0.364495906731008  0.0000
  O2     O2        0.394458962764698    0.828088392592538    0.368352915501501  0.0000
  O2     O2        0.902411625093738    0.210648434091154    0.638565148073213  0.0000
  O2     O2        0.590666280236043    0.814623140146942    0.623404045944687  0.0000
  O2     O2        0.881704341082182    0.865719536501635    0.626205943162242  0.0000
  O2     O2        0.611344246608681    0.158844219228926    0.621613453932476  0.0000
  O2     O2        0.104819405312670    0.860058915037547    0.366185775489774  0.0000
  O2     O2        0.384511635625427    0.174944748363749    0.364677165420159  0.0000
  O2     O2        0.993745849367061    0.015962810271742    0.496970394498828  0.0000
  O2     O2        0.492847878127420    0.019501375610867    0.499270964909347  0.0000
  O2     O2        0.985189968196158    0.008980919027345    0.248283393226312  0.0000
  O2     O2        0.503971304406419    0.015934818732738    0.250741981445872  0.0000
  O2     O2        0.007108498228957    0.997597283783154    0.744269089053088  0.0000
  O2     O2        0.491957715992362    0.017543548518311    0.748453634608950  0.0000
  O3     O3        0.620935509256999    0.137884134897370    0.117407600957144  0.0000
  O3     O3        0.860218016351689    0.899250931135071    0.123164816769986  0.0000
  O3     O3        0.372942906714496    0.169719189272308    0.862293353040051  0.0000
  O2     O2        0.116534281670090    0.873765450644147    0.890594664936875  0.0000
  O2     O2        0.396413614230275    0.834807258958213    0.893097120037737  0.0000
  O2     O2        0.078838558022036    0.211476686070572    0.903511002724996  0.0000
  O2     O2        0.574179996171081    0.811585074628410    0.084257453200440  0.0000
  O2     O2        0.906090154937156    0.227316681800542    0.103729567897253  0.0000
  O2     O2        0.490062807051028    0.079278483891406    0.999444938636831  0.0000
  O2     O2        0.983615726766056    0.963175405338109    0.994403013434195  0.0000
  O2     O2        0.128297520502731    0.529591910980814    0.308779278207004  0.0000
  O2     O2        0.359464651389551    0.503462468404281    0.297302736638934  0.0000
  O2     O2        0.862137799482369    0.535903237467681    0.697877956300785  0.0000
  O2     O2        0.629131976424481    0.489821331858365    0.688245410947301  0.0000
  O2     O2        0.239870774482793    0.288271348645356    0.322720382084269  0.0000
  O2     O2        0.248448863672339    0.745224277474343    0.320220444548208  0.0000
  O2     O2        0.753658738453426    0.288133459280604    0.669470906559752  0.0000
  O2     O2        0.738621814579888    0.735729152432679    0.663359870026093  0.0000
  O2     O2        0.139718594079522    0.285591641874501    0.129529900895680  0.0000
  O2     O2        0.352503997701527    0.762226587062474    0.130197951455309  0.0000
  O2     O2        0.849087707528375    0.285470502114987    0.870407558169502  0.0000
  O2     O2        0.639798922673221    0.742988882061971    0.858973359436731  0.0000
  O3     O3        0.831510468265886    0.801529201117618    0.858820742278566  0.0000
  O3     O3        0.654215836026708    0.231029036304611    0.857359238682100  0.0000
  O2     O2        0.147073408533862    0.777637374586979    0.130256356287607  0.0000
  O3     O3        0.337341929261422    0.243239152366597    0.129719325818660  0.0000
  O3     O3        0.613216089007968    0.492996144674007    0.032325618548740  0.0000
  O3     O3        0.870098841648185    0.545298412843425    0.039177952337665  0.0000
  O3     O3        0.366593947619828    0.513016193871709    0.953545415964141  0.0000
  O2     O2        0.121188906210769    0.536603310395800    0.953184783865997  0.0000
  O3     O3        0.756674207186447    0.318400185792763    0.067428714486091  0.0000
  O3     O3        0.725475047572902    0.724288293469084    0.064949787870918  0.0000
  O3     O3        0.229231754041566    0.298072197515765    0.925176221315604  0.0000
  O2     O2        0.249932991710073    0.730295970538366    0.941842947219582  0.0000
