data_c00033.vasp
_audit_creation_method             Generated by GULP
_audit_author_name                 Salvador R. G. Balestra
_symmetry_space_group_name_H-M     'P 1             '
_symmetry_Int_Tables_number        1

loop_
_symmetry_equiv_pos_site_id
_symmetry_equiv_pos_as_xyz
_cell_length_a                        9.1737
_cell_length_b                        7.7094
_cell_length_c                       10.2339
_cell_angle_alpha                   87.4591
_cell_angle_beta                   106.8738
_cell_angle_gamma                   91.3178

loop_
_atom_site_label
_atom_site_type_symbol
_atom_site_fract_x
_atom_site_fract_y
_atom_site_fract_z
_atom_site_charge
  Ge     Ge        0.313819999999964    0.296860000000038    0.309830000000034  0.0000
  Ge     Ge        0.697250802515171    0.354950112516972    0.713108870708862  0.0000
  Ge     Ge        0.634363558629251    0.759731101025219    0.707245003019716  0.0000
  Ge     Ge        0.334005800640308    0.278294413428934    0.630454043740028  0.0000
  Ge     Ge        0.676553535213898    0.375545033612485    0.387448947001563  0.0000
  Ge     Ge        0.636070120985975    0.780361650063884    0.384016498961795  0.0000
  Ge     Ge        0.094770545323758    0.981227093693792    0.668873996789918  0.0000
  Ge     Ge        0.890458493301200    0.028258305813565    0.871277539893333  0.0000
  Si     Si        0.289247157617789    0.695954703592130    0.301039630910818  0.0000
  Si     Si        0.288457797692897    0.676656396385101    0.611395671065423  0.0000
  Si     Si        0.875830350852412    0.070620168339772    0.374563865544421  0.0000
  Si     Si        0.081443235488175    0.008679515060748    0.186557347397189  0.0000
  O1     O1        0.264466959180581    0.255409501598699    0.457154869775905  0.0000
  O1     O1        0.733984328996744    0.398659706525031    0.560526926004447  0.0000
  O1     O1        0.684644919402646    0.792879227993343    0.558074771180747  0.0000
  O2     O2        0.282184761330947    0.642099876083041    0.454396207204526  0.0000
  O3     O3        0.286116394512903    0.509244705179901    0.238631290720285  0.0000
  O1     O1        0.678484684475644    0.553682835314543    0.775274869029676  0.0000
  O1     O1        0.505679039333146    0.264127148679814    0.343832462757257  0.0000
  O1     O1        0.526053885335121    0.242939951910320    0.683399599100087  0.0000
  O3     O3        0.439648990621654    0.789436912399639    0.675841133111779  0.0000
  O3     O3        0.440928188960113    0.809436416900646    0.315646976165975  0.0000
  O3     O3        0.208873281916301    0.155794005014372    0.189347699560719  0.0000
  O1     O1        0.844988328433949    0.239886785045008    0.819158169739680  0.0000
  O1     O1        0.726029014071003    0.908118716330993    0.821194484220832  0.0000
  O2     O2        0.150877078931050    0.814796138536459    0.212744815097430  0.0000
  O3     O3        0.299301736016472    0.484403873266258    0.679013804499955  0.0000
  O1     O1        0.666157383462569    0.583992932269952    0.323569013041214  0.0000
  O1     O1        0.239786797387435    0.129585271359949    0.706533450087407  0.0000
  O3     O3        0.807884307977890    0.261682164873735    0.334542752973615  0.0000
  O3     O3        0.738852251749968    0.934060152360108    0.320727522660949  0.0000
  O3     O3        0.145886979444052    0.780606955731747    0.624743982359288  0.0000
  O3     O3        0.939032101055880    0.052720771379420    0.538517813807440  0.0000
  O2     O2        0.014162083504603    0.042427012569193    0.312513954823387  0.0000
  O1     O1        0.029475631014076    0.950120500499625    0.809236133984588  0.0000
  O3     O3        0.949601265629999    0.016909146789177    0.047665026826199  0.0000
