data_c00009.vasp
_audit_creation_method             Generated by GULP
_audit_author_name                 Salvador R. G. Balestra
_symmetry_space_group_name_H-M     'P 1             '
_symmetry_Int_Tables_number        1

loop_
_symmetry_equiv_pos_site_id
_symmetry_equiv_pos_as_xyz
_cell_length_a                        9.1621
_cell_length_b                        7.7213
_cell_length_c                       10.1166
_cell_angle_alpha                   85.8456
_cell_angle_beta                   105.0148
_cell_angle_gamma                   91.8977

loop_
_atom_site_label
_atom_site_type_symbol
_atom_site_fract_x
_atom_site_fract_y
_atom_site_fract_z
_atom_site_charge
  Ge     Ge        0.313819999999964    0.296860000000038    0.309830000000034  0.0000
  Ge     Ge        0.678046075877575    0.319104629620349    0.725752756126778  0.0000
  Ge     Ge        0.625539138582219    0.728541714182483    0.725794666267202  0.0000
  Ge     Ge        0.290384882021270    0.693223264344907    0.323359597592864  0.0000
  Ge     Ge        0.309467627935104    0.258155553785487    0.630107038373479  0.0000
  Ge     Ge        0.678060929071662    0.371904252453371    0.405611430127010  0.0000
  Ge     Ge        0.076946409239563    0.007393560332588    0.166536123876231  0.0000
  Ge     Ge        0.886589013405765    0.995812037413656    0.851408084573587  0.0000
  Si     Si        0.627640457999413    0.779300058261177    0.401965239396405  0.0000
  Si     Si        0.288099945303399    0.647466927703330    0.639093475681318  0.0000
  Si     Si        0.859745826651788    0.070693752487076    0.344783842560119  0.0000
  Si     Si        0.077202438277418    0.959444792147289    0.630244732347459  0.0000
  O1     O1        0.254568256652286    0.244492702863168    0.455819729369347  0.0000
  O1     O1        0.739093969479573    0.341110326019469    0.578804019115171  0.0000
  O3     O3        0.654575605722332    0.780161013002262    0.564947396559487  0.0000
  O3     O3        0.321861806784783    0.610369814833461    0.493198657019139  0.0000
  O1     O1        0.273782174924313    0.506314085635600    0.241021226319201  0.0000
  O1     O1        0.669594631074155    0.518312200430212    0.784299951185605  0.0000
  O1     O1        0.505285136983263    0.275105720040124    0.346757194151508  0.0000
  O1     O1        0.500251176180961    0.223003831280541    0.688774135739272  0.0000
  O3     O3        0.435285452738194    0.746562010002535    0.722759425616161  0.0000
  O3     O3        0.453875453081440    0.814443348073354    0.323277802025620  0.0000
  O1     O1        0.215769144893757    0.162179335685809    0.188434213914537  0.0000
  O1     O1        0.815703396809413    0.199944595503539    0.839626953665329  0.0000
  O1     O1        0.730334186099273    0.861582154269963    0.840505382649668  0.0000
  O1     O1        0.138087877754324    0.818433465719826    0.263336401714014  0.0000
  O3     O3        0.266433904745797    0.450558166559447    0.694218242684821  0.0000
  O3     O3        0.670013956615944    0.592682964707563    0.360581248187612  0.0000
  O3     O3        0.207914822519676    0.094148402649578    0.695848643434952  0.0000
  O3     O3        0.806133091266162    0.266279620121019    0.341960765438546  0.0000
  O2     O2        0.724708765652352    0.933684144060503    0.349755627111814  0.0000
  O2     O2        0.143971856791390    0.767503733037238    0.625358793309801  0.0000
  O2     O2        0.003354914848205    0.027604486860004    0.472997943173924  0.0000
  O3     O3        0.913111178885036    0.062984672420727    0.207216267398453  0.0000
  O3     O3        0.952933145222366    0.941051328234326    0.713959294027273  0.0000
  O1     O1        0.027116468894218    0.962070350817695    0.996865778527394  0.0000
