data_c00020.vasp
_audit_creation_method             Generated by GULP
_audit_author_name                 Salvador R. G. Balestra
_symmetry_space_group_name_H-M     'P 1             '
_symmetry_Int_Tables_number        1

loop_
_symmetry_equiv_pos_site_id
_symmetry_equiv_pos_as_xyz
_cell_length_a                        9.3958
_cell_length_b                        7.8049
_cell_length_c                        9.9638
_cell_angle_alpha                   83.8868
_cell_angle_beta                   112.0351
_cell_angle_gamma                   88.7519

loop_
_atom_site_label
_atom_site_type_symbol
_atom_site_fract_x
_atom_site_fract_y
_atom_site_fract_z
_atom_site_charge
  Ge     Ge        0.313819999999964    0.296860000000038    0.309830000000034  0.0000
  Ge     Ge        0.756709324961491    0.212405359919249    0.725670534817308  0.0000
  Ge     Ge        0.732338887574443    0.631770745929404    0.737598389354877  0.0000
  Ge     Ge        0.345334914072828    0.677224162277627    0.338868400518553  0.0000
  Ge     Ge        0.390192673564123    0.204730547513329    0.659924835099726  0.0000
  Ge     Ge        0.876486230182637    0.001788183465346    0.338374650370081  0.0000
  Ge     Ge        0.165386801063933    0.908854008932560    0.655857765562205  0.0000
  Ge     Ge        0.109859095493183    0.994150287619093    0.180254033607020  0.0000
  Si     Si        0.682252766145768    0.291448880397220    0.390675643399050  0.0000
  Si     Si        0.686549650448915    0.691652555326181    0.404164530863032  0.0000
  Si     Si        0.396552070297568    0.590420143543833    0.667034242031849  0.0000
  Si     Si        0.987354812014221    0.882929767521104    0.875279610415220  0.0000
  O1     O1        0.307968599874139    0.208192499475245    0.472936837232639  0.0000
  O3     O3        0.749519946372097    0.188718917841174    0.552528631454004  0.0000
  O3     O3        0.722581429850495    0.729677633811467    0.569391124651453  0.0000
  O3     O3        0.426127845274257    0.565645184119281    0.517622429782582  0.0000
  O1     O1        0.252049047642162    0.510883571193709    0.252562456412128  0.0000
  O1     O1        0.791223662597567    0.417815615542512    0.768829682053465  0.0000
  O3     O3        0.500531601255451    0.287696489510142    0.316716878694011  0.0000
  O1     O1        0.584396847861420    0.151334357885222    0.729153458675276  0.0000
  O3     O3        0.560195230563943    0.653840863672028    0.766236096179001  0.0000
  O3     O3        0.507792322059917    0.737033286858941    0.305286288203025  0.0000
  O1     O1        0.193701980823458    0.185029668949871    0.178040775825730  0.0000
  O3     O3        0.910547027038150    0.079061065283724    0.843397878060638  0.0000
  O3     O3        0.858997768035898    0.747422322193614    0.863038709641676  0.0000
  O1     O1        0.235957810387153    0.855511134589484    0.328552523706041  0.0000
  O3     O3        0.363193696833127    0.400095477370541    0.720415732427842  0.0000
  O2     O2        0.730211897429967    0.489228065892498    0.403260697917003  0.0000
  O1     O1        0.300214262944481    0.051037557964229    0.729584906224436  0.0000
  O3     O3        0.757948638948426    0.188182156310942    0.301305523259703  0.0000
  O3     O3        0.789435666411483    0.809977132434998    0.341840073291171  0.0000
  O3     O3        0.252712668137818    0.721146298080603    0.634347611796164  0.0000
  O1     O1        0.037624725377756    0.006667957215032    0.492558780842481  0.0000
  O1     O1        0.935403795678065    0.014131268185642    0.193907460897315  0.0000
  O3     O3        0.072834509151522    0.841016257813744    0.770120423667732  0.0000
  O3     O3        0.107504134206983    0.876195078158988    0.040532932874517  0.0000
