data_c00086.vasp
_audit_creation_method             Generated by GULP
_audit_author_name                 Salvador R. G. Balestra
_symmetry_space_group_name_H-M     'P 1             '
_symmetry_Int_Tables_number        1

loop_
_symmetry_equiv_pos_site_id
_symmetry_equiv_pos_as_xyz
_cell_length_a                        9.2701
_cell_length_b                        7.8660
_cell_length_c                       10.1069
_cell_angle_alpha                   89.4403
_cell_angle_beta                   107.4120
_cell_angle_gamma                   90.9793

loop_
_atom_site_label
_atom_site_type_symbol
_atom_site_fract_x
_atom_site_fract_y
_atom_site_fract_z
_atom_site_charge
  Ge     Ge        0.313819999999964    0.296860000000038    0.309830000000034  0.0000
  Ge     Ge        0.690503193854723    0.322402495522577    0.719418367392384  0.0000
  Ge     Ge        0.331277051623165    0.292082956704771    0.639819966012379  0.0000
  Ge     Ge        0.675382005012082    0.333597541299890    0.392862465011920  0.0000
  Ge     Ge        0.641702448357889    0.740882113910862    0.395039292239354  0.0000
  Ge     Ge        0.871520548819189    0.029485833660509    0.327983914058823  0.0000
  Ge     Ge        0.106068495765095    0.984131430420606    0.637636433812674  0.0000
  Ge     Ge        0.893276936348788    0.003916977364631    0.840574964129728  0.0000
  Si     Si        0.664728749756002    0.719457480901083    0.712173261225358  0.0000
  Si     Si        0.288137762354818    0.694947676173827    0.314048037699574  0.0000
  Si     Si        0.314953839830510    0.683267060400457    0.630567587390127  0.0000
  Si     Si        0.089866648577234    0.995091684691832    0.148600168644116  0.0000
  O1     O1        0.325314016536434    0.232648115110099    0.474721840285115  0.0000
  O1     O1        0.685656334369165    0.259030941728549    0.555975695515620  0.0000
  O3     O3        0.660322215910293    0.800069087471057    0.563785834220621  0.0000
  O2     O2        0.298899111148519    0.739541254798324    0.472529164754766  0.0000
  O3     O3        0.237955203467427    0.500278272640974    0.282086820228873  0.0000
  O3     O3        0.742140538911265    0.536104604788744    0.733614110217861  0.0000
  O1     O1        0.491192407133373    0.302710604934438    0.290692953165046  0.0000
  O1     O1        0.515335167258007    0.288557036199812    0.741109610897834  0.0000
  O2     O2        0.492978557910391    0.687004771613897    0.716747043437185  0.0000
  O3     O3        0.453363581215649    0.724643043060645    0.297884257456377  0.0000
  O3     O3        0.199208517516094    0.157640741972076    0.194050515811534  0.0000
  O1     O1        0.819876233810662    0.202676032491299    0.838177046548168  0.0000
  O3     O3        0.752315533108844    0.849982493393550    0.829321649228354  0.0000
  O2     O2        0.169351912134199    0.820571585600881    0.214694175428361  0.0000
  O3     O3        0.255362624742557    0.492895997952322    0.634651171248566  0.0000
  O1     O1        0.721520332139094    0.546389210458754    0.397742703796067  0.0000
  O1     O1        0.216865440118958    0.159767266350866    0.699120715214840  0.0000
  O1     O1        0.805082704300191    0.230320348441996    0.334868065409633  0.0000
  O1     O1        0.724069424713333    0.890949914451926    0.317863325673320  0.0000
  O3     O3        0.220906155484536    0.808960433296502    0.692547644298414  0.0000
  O1     O1        0.031515389618313    0.989573971416770    0.460800083498098  0.0000
  O3     O3        0.932308625629968    0.017595039042408    0.181727856032169  0.0000
  O1     O1        0.954509992120203    0.973006714213782    0.698473634343631  0.0000
  O3     O3        0.047884571443613    0.978071898921027    0.983618236474423  0.0000
