data_c00087.vasp
_audit_creation_method             Generated by GULP
_audit_author_name                 Salvador R. G. Balestra
_symmetry_space_group_name_H-M     'P 1             '
_symmetry_Int_Tables_number        1

loop_
_symmetry_equiv_pos_site_id
_symmetry_equiv_pos_as_xyz
_cell_length_a                        9.1803
_cell_length_b                        7.7530
_cell_length_c                       10.2531
_cell_angle_alpha                   86.9095
_cell_angle_beta                   107.2059
_cell_angle_gamma                   91.6562

loop_
_atom_site_label
_atom_site_type_symbol
_atom_site_fract_x
_atom_site_fract_y
_atom_site_fract_z
_atom_site_charge
  Ge     Ge        0.313819999999964    0.296860000000038    0.309830000000034  0.0000
  Ge     Ge        0.689280910294450    0.325533334902941    0.716691684428335  0.0000
  Ge     Ge        0.316823485115705    0.265573878047626    0.624711495020554  0.0000
  Ge     Ge        0.682548881480290    0.370590027097919    0.399462755822487  0.0000
  Ge     Ge        0.620073219444279    0.777546282489557    0.397975477471251  0.0000
  Ge     Ge        0.864910886557170    0.066332326170168    0.335134487189318  0.0000
  Ge     Ge        0.081595906138957    0.999379645225769    0.154674368132873  0.0000
  Ge     Ge        0.891820642021483    0.996967130361358    0.838250910395341  0.0000
  Si     Si        0.639541572832745    0.724738488005063    0.720173266794738  0.0000
  Si     Si        0.276139336125656    0.688894502123060    0.319174352988738  0.0000
  Si     Si        0.295997170898036    0.655314196954973    0.633798758900296  0.0000
  Si     Si        0.089399705522266    0.966521151451264    0.629984596666001  0.0000
  O1     O1        0.252490543880090    0.248506842994785    0.450666076363758  0.0000
  O1     O1        0.748940357099189    0.340536533288871    0.573929473939874  0.0000
  O3     O3        0.667064549757964    0.768958737313646    0.573989104782156  0.0000
  O2     O2        0.288572306441423    0.626020041815930    0.476175409380916  0.0000
  O3     O3        0.274796963260845    0.510129986543488    0.247851758930680  0.0000
  O3     O3        0.684102342296590    0.529549690607283    0.773854985843345  0.0000
  O1     O1        0.505791782661120    0.270916158616297    0.348145528989139  0.0000
  O1     O1        0.509099906030705    0.233591762759626    0.677782552967518  0.0000
  O2     O2        0.459398395081895    0.744501786510410    0.706074586368385  0.0000
  O3     O3        0.425670144999389    0.804972557275550    0.324268698743930  0.0000
  O1     O1        0.216363891313969    0.160092012522850    0.186900919785671  0.0000
  O1     O1        0.818561873070811    0.198612179360045    0.834544108930419  0.0000
  O3     O3        0.739579737508488    0.853430677847877    0.827275104101441  0.0000
  O3     O3        0.132699782102806    0.803422716677014    0.245749730184762  0.0000
  O3     O3        0.281496111051397    0.460899857210708    0.688048442097268  0.0000
  O1     O1        0.669861594998654    0.584849933245815    0.349639692426860  0.0000
  O3     O3        0.216452005832946    0.110178795022052    0.692592837151586  0.0000
  O1     O1        0.813765425743850    0.276374309729371    0.338814627463384  0.0000
  O1     O1        0.705537285711614    0.945936674456528    0.336750165929949  0.0000
  O2     O2        0.165470644937666    0.775903699326365    0.652001593826965  0.0000
  O3     O3        0.020718797963798    0.000688700894350    0.468152967775228  0.0000
  O1     O1        0.917675947342501    0.053785774294570    0.189663656216055  0.0000
  O3     O3        0.954669607623639    0.965954586571275    0.697675196394153  0.0000
  O1     O1        0.036320012410882    0.960499054071082    0.983641477096203  0.0000
