data_c00089.vasp
_audit_creation_method             Generated by GULP
_audit_author_name                 Salvador R. G. Balestra
_symmetry_space_group_name_H-M     'P 1             '
_symmetry_Int_Tables_number        1

loop_
_symmetry_equiv_pos_site_id
_symmetry_equiv_pos_as_xyz
_cell_length_a                        9.2532
_cell_length_b                        7.8700
_cell_length_c                       10.2119
_cell_angle_alpha                   90.7560
_cell_angle_beta                   107.3366
_cell_angle_gamma                   88.7952

loop_
_atom_site_label
_atom_site_type_symbol
_atom_site_fract_x
_atom_site_fract_y
_atom_site_fract_z
_atom_site_charge
  Ge     Ge        0.313819999999964    0.296860000000038    0.309830000000034  0.0000
  Ge     Ge        0.693688336220425    0.258517977011039    0.720050564645932  0.0000
  Ge     Ge        0.336063781467648    0.305509691091560    0.641349259760616  0.0000
  Ge     Ge        0.671764781883104    0.251469024301504    0.394870641063580  0.0000
  Ge     Ge        0.893978062851061    0.946610142720511    0.335224265013741  0.0000
  Ge     Ge        0.135343000716639    0.987563788660441    0.636245200521270  0.0000
  Ge     Ge        0.119194583696675    0.975641287169216    0.155842155294060  0.0000
  Ge     Ge        0.925311791252062    0.954344157845326    0.839545988816383  0.0000
  Si     Si        0.716170681878779    0.654447197351132    0.716903743437695  0.0000
  Si     Si        0.347997192704474    0.690256141311753    0.326084353355126  0.0000
  Si     Si        0.702046532806259    0.649674737513822    0.412218980946229  0.0000
  Si     Si        0.362258158503250    0.694355970560385    0.636436151410980  0.0000
  O1     O1        0.332348562861467    0.249924093856515    0.477271282021197  0.0000
  O1     O1        0.684527111196198    0.185788015103175    0.557808892333296  0.0000
  O2     O2        0.729681027979250    0.714893110370868    0.569147420362276  0.0000
  O2     O2        0.336834503517452    0.738980802051436    0.476988500225507  0.0000
  O3     O3        0.267831968887736    0.511882972474492    0.279381593032531  0.0000
  O3     O3        0.768885808564054    0.461015427775321    0.742002181331415  0.0000
  O1     O1        0.489202430668572    0.253027249059395    0.290167411599712  0.0000
  O1     O1        0.517410968456193    0.264664940618873    0.742266552661941  0.0000
  O2     O2        0.540308952668192    0.669154564747996    0.714419951639958  0.0000
  O2     O2        0.523381822104424    0.667360560713031    0.330566897645671  0.0000
  O1     O1        0.174214571326871    0.181124065519761    0.201439339044023  0.0000
  O1     O1        0.811923869714152    0.129654260005319    0.839396486968944  0.0000
  O3     O3        0.816446571028000    0.774539378795424    0.832523043350916  0.0000
  O3     O3        0.272931346393089    0.841293069077914    0.226591252626515  0.0000
  O3     O3        0.284465827036247    0.517462561477290    0.648068746329465  0.0000
  O3     O3        0.748440304840484    0.453763277305790    0.409627296796687  0.0000
  O1     O1        0.207347774366405    0.185302602559619    0.686406486103876  0.0000
  O1     O1        0.778108647783490    0.120401616743238    0.324128839063851  0.0000
  O3     O3        0.799930979054331    0.761528108572159    0.343694611759633  0.0000
  O3     O3        0.285951849328557    0.844017074498981    0.699210537335697  0.0000
  O1     O1        0.062514309252054    0.969971761740894    0.461745242032755  0.0000
  O1     O1        0.955494291163430    0.930219699589384    0.191889157916465  0.0000
  O1     O1        0.986963149664860    0.954502685275972    0.697014324421384  0.0000
  O1     O1        0.079059136980040    0.953558862371240    0.980989045906329  0.0000
