data_c00055.vasp
_audit_creation_method             Generated by GULP
_audit_author_name                 Salvador R. G. Balestra
_symmetry_space_group_name_H-M     'P 1             '
_symmetry_Int_Tables_number        1

loop_
_symmetry_equiv_pos_site_id
_symmetry_equiv_pos_as_xyz
_cell_length_a                        9.3902
_cell_length_b                        7.7065
_cell_length_c                       10.2676
_cell_angle_alpha                   83.7696
_cell_angle_beta                   110.8600
_cell_angle_gamma                   90.5945

loop_
_atom_site_label
_atom_site_type_symbol
_atom_site_fract_x
_atom_site_fract_y
_atom_site_fract_z
_atom_site_charge
  Ge     Ge        0.313819999999964    0.296860000000038    0.309830000000034  0.0000
  Ge     Ge        0.729987725485067    0.258367508380592    0.708687923331926  0.0000
  Ge     Ge        0.684727935750136    0.683955286317888    0.716744158581311  0.0000
  Ge     Ge        0.366391536870303    0.206021590092744    0.638807859363231  0.0000
  Ge     Ge        0.343079084247478    0.606718546114347    0.645222005233975  0.0000
  Ge     Ge        0.860096355879646    0.039994345096908    0.332164287778740  0.0000
  Ge     Ge        0.122510297222868    0.921154971466122    0.644583957035867  0.0000
  Ge     Ge        0.093175514453495    0.997674912232186    0.173978185424132  0.0000
  Si     Si        0.314684664278789    0.678521961191465    0.328145933098059  0.0000
  Si     Si        0.678799858241042    0.330838047700255    0.391160102385321  0.0000
  Si     Si        0.648606888524196    0.737028983334638    0.393007189014303  0.0000
  Si     Si        0.943167998986453    0.933711395009741    0.861128413450619  0.0000
  O1     O1        0.278450062039535    0.219457025018359    0.457926572991430  0.0000
  O3     O3        0.763929393186299    0.259715019265889    0.553473505825090  0.0000
  O3     O3        0.697164717715928    0.764486184157585    0.556010047033830  0.0000
  O3     O3        0.370768032243666    0.580556310575704    0.487376504195133  0.0000
  O3     O3        0.260718884151268    0.514934744891463    0.240810939323024  0.0000
  O1     O1        0.729683142687322    0.463899104169362    0.755025972199892  0.0000
  O3     O3        0.505490318674377    0.272491258434813    0.341833008397255  0.0000
  O1     O1        0.558441068533658    0.163055755499211    0.686883121913444  0.0000
  O1     O1        0.508107432207227    0.710288761998344    0.728050891736788  0.0000
  O2     O2        0.465984717353120    0.770946637251522    0.312256526197392  0.0000
  O1     O1        0.204057623293586    0.175284810108459    0.182428238764066  0.0000
  O3     O3        0.878834036945104    0.133302376016045    0.830942386436314  0.0000
  O3     O3        0.804985126791769    0.802675338746793    0.841261755473264  0.0000
  O3     O3        0.189922798188099    0.827689674557254    0.303276553310366  0.0000
  O1     O1        0.339347651434321    0.392556686051240    0.707039491561718  0.0000
  O2     O2        0.690770986172115    0.540229133079544    0.375436094819999  0.0000
  O1     O1        0.282246113797023    0.040134713233686    0.707779292797507  0.0000
  O3     O3        0.763093871009394    0.239057571560322    0.305356035415116  0.0000
  O3     O3        0.737820387454745    0.868555803098103    0.322569839526545  0.0000
  O1     O1        0.181149466621160    0.714549134207782    0.629166661961143  0.0000
  O1     O1        0.012923830786023    0.023510153599983    0.484814976977600  0.0000
  O1     O1        0.926317170591390    0.041399096980708    0.196632288609104  0.0000
  O3     O3        0.025117784209970    0.885983103695420    0.756749311087417  0.0000
  O3     O3        0.061817423858042    0.910416236495136    0.018474583871031  0.0000
