data_c00002.vasp
_audit_creation_method             Generated by GULP
_audit_author_name                 Salvador R. G. Balestra
_symmetry_space_group_name_H-M     'P 1             '
_symmetry_Int_Tables_number        1

loop_
_symmetry_equiv_pos_site_id
_symmetry_equiv_pos_as_xyz
_cell_length_a                        9.0232
_cell_length_b                        7.7565
_cell_length_c                       10.3084
_cell_angle_alpha                   91.2346
_cell_angle_beta                   107.3228
_cell_angle_gamma                   87.4459

loop_
_atom_site_label
_atom_site_type_symbol
_atom_site_fract_x
_atom_site_fract_y
_atom_site_fract_z
_atom_site_charge
  Ge     Ge        0.313819999999964    0.296860000000038    0.309830000000034  0.0000
  Ge     Ge        0.707358980623630    0.222735640442638    0.713146243514618  0.0000
  Ge     Ge        0.746222170082729    0.625193450951023    0.728394253522181  0.0000
  Ge     Ge        0.380757699191850    0.698799944393755    0.322567736201197  0.0000
  Ge     Ge        0.333096651483520    0.301792879721333    0.624911767927280  0.0000
  Ge     Ge        0.686905645799243    0.208265393599755    0.395343241241823  0.0000
  Ge     Ge        0.749133629505684    0.609596161272458    0.411771794493208  0.0000
  Ge     Ge        0.933932853549309    0.921320474282974    0.349994913434763  0.0000
  Si     Si        0.381778379567405    0.699094933377132    0.632648512571500  0.0000
  Si     Si        0.147259684053749    0.994245129715623    0.653073221129755  0.0000
  Si     Si        0.138662096554560    0.982823406107681    0.154448809542495  0.0000
  Si     Si        0.948588357204895    0.933945190787105    0.852228640069846  0.0000
  O1     O1        0.253344634402090    0.314471830375050    0.452444655624870  0.0000
  O1     O1        0.765576708278257    0.200139843226245    0.569506318823654  0.0000
  O1     O1        0.803184684873855    0.594604494487346    0.585488493565688  0.0000
  O3     O3        0.322789820762024    0.703433073376414    0.468996177392621  0.0000
  O1     O1        0.334278222213215    0.497567490681265    0.251969400287384  0.0000
  O1     O1        0.737839773385249    0.424312701568429    0.788214884733319  0.0000
  O1     O1        0.490612798140179    0.186826420483256    0.354368257203008  0.0000
  O1     O1        0.511109348615333    0.195849255351644    0.664254413720700  0.0000
  O3     O3        0.564518624333505    0.732113167177920    0.683440293644995  0.0000
  O1     O1        0.575025225242893    0.727363959422908    0.361724436847442  0.0000
  O3     O3        0.177429504673330    0.180851867714347    0.189819359552299  0.0000
  O3     O3        0.808686848329267    0.074425699163680    0.832935739491700  0.0000
  O3     O3        0.878922744400956    0.746956448866262    0.845535669976347  0.0000
  O3     O3        0.292069733806202    0.863390171311325    0.215360858641067  0.0000
  O3     O3        0.354282408496624    0.512349290838136    0.685817978709237  0.0000
  O1     O1        0.722260048278285    0.407719417869819    0.342069563419507  0.0000
  O3     O3        0.218209687360049    0.180853296262516    0.694558196292861  0.0000
  O1     O1        0.768054362619078    0.049272746819864    0.318800005484243  0.0000
  O1     O1        0.890191680881950    0.712280097462646    0.367758740679039  0.0000
  O2     O2        0.285185104842840    0.845416926102145    0.690614331035746  0.0000
  O3     O3        0.070298196239922    0.998675708099652    0.491521412004476  0.0000
  O3     O3        0.003332082520094    0.922009825895215    0.211869023271551  0.0000
  O2     O2        0.019899510207649    0.953889540953483    0.726800877186759  0.0000
  O2     O2        0.083376600089765    0.960887810518878    0.991530749508770  0.0000
