data_c00031.vasp
_audit_creation_method             Generated by GULP
_audit_author_name                 Salvador R. G. Balestra
_symmetry_space_group_name_H-M     'P 1             '
_symmetry_Int_Tables_number        1

loop_
_symmetry_equiv_pos_site_id
_symmetry_equiv_pos_as_xyz
_cell_length_a                        9.3000
_cell_length_b                        7.8002
_cell_length_c                       10.1999
_cell_angle_alpha                   87.8962
_cell_angle_beta                   109.6960
_cell_angle_gamma                   87.8029

loop_
_atom_site_label
_atom_site_type_symbol
_atom_site_fract_x
_atom_site_fract_y
_atom_site_fract_z
_atom_site_charge
  Ge     Ge        0.313819999999964    0.296860000000038    0.309830000000034  0.0000
  Ge     Ge        0.722748990451161    0.224761466417160    0.716413546307554  0.0000
  Ge     Ge        0.730676256313330    0.646538312235656    0.724709377616108  0.0000
  Ge     Ge        0.356874018366180    0.260905447131411    0.645931028484352  0.0000
  Ge     Ge        0.682068863129727    0.246012291412938    0.393009944904422  0.0000
  Ge     Ge        0.712020182609009    0.656126360997715    0.409488217330881  0.0000
  Ge     Ge        0.901777563806445    0.958040209749350    0.337537460712880  0.0000
  Ge     Ge        0.974873446920607    0.916181909634688    0.865004268914901  0.0000
  Si     Si        0.363502711960205    0.674381268994660    0.330156801619862  0.0000
  Si     Si        0.385788217128957    0.649107191641883    0.643951594698736  0.0000
  Si     Si        0.152131435791889    0.959593115858404    0.644546979342212  0.0000
  Si     Si        0.135736274794094    0.979702711623322    0.178053852266110  0.0000
  O1     O1        0.310896844965022    0.233516890389791    0.471011448756610  0.0000
  O1     O1        0.705279978413583    0.152383184490773    0.554835866077250  0.0000
  O1     O1        0.735567037948268    0.736732614368784    0.569499638749814  0.0000
  O2     O2        0.420745424013522    0.618716406470638    0.498267202150485  0.0000
  O3     O3        0.264773105691297    0.515944367623578    0.262674091890293  0.0000
  O1     O1        0.776207749781680    0.432645466964775    0.728202987983418  0.0000
  O1     O1        0.491527517688373    0.273803000767376    0.298211480122665  0.0000
  O1     O1        0.546578676021272    0.213845529816225    0.735893130394866  0.0000
  O3     O3        0.553506631509269    0.678914996708330    0.748839147036438  0.0000
  O3     O3        0.520577568126452    0.691468711217870    0.300772097902356  0.0000
  O3     O3        0.186302426440538    0.173896263403522    0.192203903927758  0.0000
  O1     O1        0.863110942698032    0.102133619890073    0.839339096622669  0.0000
  O1     O1        0.860985662017121    0.746711658772547    0.855262304601986  0.0000
  O2     O2        0.265694331941904    0.854946825979413    0.293441008624514  0.0000
  O3     O3        0.318426108986588    0.473678815895490    0.678024973696571  0.0000
  O1     O1        0.762519244166084    0.442201804628899    0.418280692094362  0.0000
  O3     O3        0.245555190437351    0.125250673070673    0.704606132371912  0.0000
  O1     O1        0.758179847807542    0.114773219869903    0.300810865845851  0.0000
  O1     O1        0.831335959308518    0.760327147688421    0.341148341386539  0.0000
  O2     O2        0.268429034962291    0.808941405895677    0.627917687587733  0.0000
  O3     O3        0.032352427330978    0.013499155897176    0.493839775072256  0.0000
  O3     O3        0.976702140594472    0.965040570446648    0.204606201296274  0.0000
  O3     O3        0.068124117258187    0.889463320446012    0.745885735640595  0.0000
  O3     O3        0.116687437762491    0.917028842675829    0.026394873203439  0.0000
