data_c00014.vasp
_audit_creation_method             Generated by GULP
_audit_author_name                 Salvador R. G. Balestra
_symmetry_space_group_name_H-M     'P 1             '
_symmetry_Int_Tables_number        1

loop_
_symmetry_equiv_pos_site_id
_symmetry_equiv_pos_as_xyz
_cell_length_a                        9.1027
_cell_length_b                        7.7090
_cell_length_c                       10.3406
_cell_angle_alpha                   88.8305
_cell_angle_beta                   107.8473
_cell_angle_gamma                   92.1580

loop_
_atom_site_label
_atom_site_type_symbol
_atom_site_fract_x
_atom_site_fract_y
_atom_site_fract_z
_atom_site_charge
  Ge     Ge        0.313819999999964    0.296860000000038    0.309830000000034  0.0000
  Ge     Ge        0.706753090454880    0.370746754384937    0.705052942899769  0.0000
  Ge     Ge        0.642956586848687    0.780816544182515    0.693249954174158  0.0000
  Ge     Ge        0.268878487148352    0.700224497187202    0.290552429929708  0.0000
  Ge     Ge        0.340393070207531    0.283449241614728    0.629178979993877  0.0000
  Ge     Ge        0.277963476889086    0.689323224510101    0.609823567862697  0.0000
  Ge     Ge        0.865177580868061    0.074455906525973    0.367685944223125  0.0000
  Ge     Ge        0.091777271922266    0.999873108553656    0.675675507718266  0.0000
  Si     Si        0.675079932191858    0.381532789147447    0.394313473217111  0.0000
  Si     Si        0.628524312002150    0.778607324263827    0.382515821102614  0.0000
  Si     Si        0.072190104700126    0.014129922456794    0.168498780896146  0.0000
  Si     Si        0.888733805846798    0.060247721114233    0.865040781810905  0.0000
  O1     O1        0.260583039017771    0.272350153769023    0.454919983406281  0.0000
  O3     O3        0.754706159214737    0.388998637245666    0.555848410819578  0.0000
  O3     O3        0.694305179995364    0.802121511865164    0.544932560958043  0.0000
  O1     O1        0.218949294545521    0.672975786558655    0.436171591135903  0.0000
  O1     O1        0.273568593450675    0.496661647740070    0.231869681549054  0.0000
  O1     O1        0.689704382220854    0.575727348723591    0.758620656863540  0.0000
  O3     O3        0.511906836339975    0.277111496433184    0.363260554718793  0.0000
  O1     O1        0.535270579037598    0.255763078727661    0.675757931643868  0.0000
  O1     O1        0.449903427844646    0.809202879391195    0.657573652444765  0.0000
  O3     O3        0.446863776948540    0.811910286954755    0.331160762076269  0.0000
  O3     O3        0.220075964153870    0.144065312773904    0.191112668685572  0.0000
  O3     O3        0.851243521322198    0.258446903079523    0.820438571999007  0.0000
  O3     O3        0.737342893529151    0.938761759665526    0.805756204816914  0.0000
  O3     O3        0.131111451066427    0.820339457011416    0.174824829116258  0.0000
  O1     O1        0.309532497968640    0.486935569625975    0.680243681261976  0.0000
  O2     O2        0.646827546808570    0.579750369326052    0.339980964521571  0.0000
  O1     O1        0.255552079082795    0.128861620860127    0.705197041375656  0.0000
  O3     O3        0.780380510982762    0.275870284394689    0.326781053065190  0.0000
  O3     O3        0.724676016234283    0.909313188422259    0.315527338785881  0.0000
  O1     O1        0.137518074322288    0.790850478084148    0.654000675344570  0.0000
  O1     O1        0.948088623007962    0.074439549455547    0.539704271649360  0.0000
  O3     O3        0.005611161573848    0.048870997399829    0.292707081496608  0.0000
  O3     O3        0.027824924947053    0.994937109340153    0.816692458992082  0.0000
  O2     O2        0.938887871108308    0.049716382713819    0.028920943607479  0.0000
