data_c00095.vasp
_audit_creation_method             Generated by GULP
_audit_author_name                 Salvador R. G. Balestra
_symmetry_space_group_name_H-M     'P 1             '
_symmetry_Int_Tables_number        1

loop_
_symmetry_equiv_pos_site_id
_symmetry_equiv_pos_as_xyz
_cell_length_a                        9.2167
_cell_length_b                        7.7714
_cell_length_c                       10.3477
_cell_angle_alpha                   91.1519
_cell_angle_beta                   107.2623
_cell_angle_gamma                   88.3629

loop_
_atom_site_label
_atom_site_type_symbol
_atom_site_fract_x
_atom_site_fract_y
_atom_site_fract_z
_atom_site_charge
  Ge     Ge        0.313819999999964    0.296860000000038    0.309830000000034  0.0000
  Ge     Ge        0.682946403953445    0.240313723556584    0.708175554404071  0.0000
  Ge     Ge        0.320029271047050    0.311343528922195    0.626396429988279  0.0000
  Ge     Ge        0.379915636525444    0.717509187175249    0.633657409068469  0.0000
  Ge     Ge        0.905142791744118    0.936579422474091    0.398282942128644  0.0000
  Ge     Ge        0.137571365299994    0.004285346698195    0.696258375883429  0.0000
  Ge     Ge        0.115582620543102    0.975078632736163    0.194087818990804  0.0000
  Ge     Ge        0.923992722891208    0.945193863742125    0.880209685728244  0.0000
  Si     Si        0.730010680160884    0.643254833656208    0.712342741108548  0.0000
  Si     Si        0.359133320356112    0.691728205828869    0.318857921880089  0.0000
  Si     Si        0.674435931907006    0.232438320801132    0.400387507253650  0.0000
  Si     Si        0.709701478430638    0.624992871833581    0.405234852480838  0.0000
  O1     O1        0.257382836501832    0.299169971389009    0.452838108731048  0.0000
  O3     O3        0.735867240035862    0.208252212494986    0.562222694051583  0.0000
  O2     O2        0.765708957206658    0.630611165106654    0.568437596746742  0.0000
  O3     O3        0.316238823823616    0.714167796794665    0.458430192387608  0.0000
  O3     O3        0.314285645880296    0.503695714135809    0.254106393591482  0.0000
  O3     O3        0.714168419677473    0.453386935149480    0.761875322500313  0.0000
  O3     O3        0.495599196094229    0.204429266524741    0.350348041006454  0.0000
  O1     O1        0.494463222163815    0.205507593108845    0.678832388522585  0.0000
  O3     O3        0.573127953295433    0.751026776575843    0.691510249851410  0.0000
  O2     O2        0.540971593045169    0.710336545442612    0.353228875584527  0.0000
  O1     O1        0.190448056549741    0.174437691319573    0.190420287559925  0.0000
  O1     O1        0.789904984423347    0.106462731381760    0.829361923543489  0.0000
  O3     O3        0.862817204157472    0.743047848850135    0.818059311415374  0.0000
  O3     O3        0.268782643673351    0.830854054590302    0.213437020342470  0.0000
  O1     O1        0.338399162318221    0.520275933617414    0.683297912372996  0.0000
  O2     O2        0.706696859219334    0.425698625167398    0.358144333035995  0.0000
  O1     O1        0.187480752222690    0.212688830372456    0.682839042798458  0.0000
  O3     O3        0.767305840445288    0.096772275372479    0.336385654231442  0.0000
  O3     O3        0.820783997424794    0.736666246432022    0.351482264473429  0.0000
  O1     O1        0.294558463076150    0.878677775292285    0.698485616601381  0.0000
  O1     O1        0.978784342142725    0.943785865544406    0.570522314285288  0.0000
  O1     O1        0.052020095940638    0.959075003366688    0.333692611787014  0.0000
  O1     O1        0.088022839717092    0.988238123711282    0.842703306070789  0.0000
  O1     O1        0.969585350580945    0.934456135530773    0.053759505251871  0.0000
