data_c00028.vasp
_audit_creation_method             Generated by GULP
_audit_author_name                 Salvador R. G. Balestra
_symmetry_space_group_name_H-M     'P 1             '
_symmetry_Int_Tables_number        1

loop_
_symmetry_equiv_pos_site_id
_symmetry_equiv_pos_as_xyz
_cell_length_a                        9.0618
_cell_length_b                        7.7653
_cell_length_c                       10.3053
_cell_angle_alpha                   90.0777
_cell_angle_beta                   106.7208
_cell_angle_gamma                   87.8816

loop_
_atom_site_label
_atom_site_type_symbol
_atom_site_fract_x
_atom_site_fract_y
_atom_site_fract_z
_atom_site_charge
  Ge     Ge        0.313819999999964    0.296860000000038    0.309830000000034  0.0000
  Ge     Ge        0.678392307381289    0.220474199482206    0.714710994003421  0.0000
  Ge     Ge        0.733701704760269    0.623937775978067    0.725974221059379  0.0000
  Ge     Ge        0.308928832953607    0.305060900876672    0.619171628813579  0.0000
  Ge     Ge        0.686769796896340    0.221686231138713    0.403853280457682  0.0000
  Ge     Ge        0.727791724446958    0.623522122707327    0.405410916493239  0.0000
  Ge     Ge        0.369217123895391    0.707938368905434    0.633166025511207  0.0000
  Ge     Ge        0.929351776539502    0.931767290267354    0.882713755676254  0.0000
  Si     Si        0.366177462539498    0.690932999372587    0.320473064498924  0.0000
  Si     Si        0.923360375212377    0.931368226014425    0.384765658357420  0.0000
  Si     Si        0.127970834403418    0.998544511037992    0.679962814868312  0.0000
  Si     Si        0.128782210223096    0.980327196354929    0.191015608691749  0.0000
  O1     O1        0.242758865167940    0.314979976392165    0.445612353152133  0.0000
  O1     O1        0.750088847990399    0.207248099934698    0.577418513226966  0.0000
  O1     O1        0.783809573012817    0.604858798843806    0.578059125070309  0.0000
  O3     O3        0.316897601157784    0.694531429297624    0.458237611388514  0.0000
  O3     O3        0.333374639871413    0.502941330785058    0.253189509262549  0.0000
  O1     O1        0.707973827068352    0.423790330284481    0.782150626116762  0.0000
  O1     O1        0.492342218761241    0.194607226005187    0.357299929999637  0.0000
  O1     O1        0.483569513782418    0.193335058635516    0.663385831250395  0.0000
  O1     O1        0.561808860074076    0.742562534557747    0.692467708780114  0.0000
  O3     O3        0.546382213742217    0.726153866441649    0.354700325490064  0.0000
  O3     O3        0.194147087381594    0.168940214320981    0.188577488495905  0.0000
  O1     O1        0.771290630263623    0.068718611511067    0.832221348998231  0.0000
  O1     O1        0.875461116770993    0.725559701334829    0.843362752678091  0.0000
  O2     O2        0.269119330163837    0.837127294164935    0.215892605948207  0.0000
  O1     O1        0.328489316807770    0.508463738167237    0.685350814450628  0.0000
  O1     O1        0.720764692218653    0.419366373224862    0.344192588209465  0.0000
  O3     O3        0.173846630937649    0.194470551988223    0.671559563743191  0.0000
  O3     O3        0.781702763955918    0.067566934241240    0.333786674972864  0.0000
  O3     O3        0.857884552563126    0.742081992661874    0.352291551541776  0.0000
  O3     O3        0.275404248329079    0.871815731486201    0.691919945021665  0.0000
  O2     O2        0.990714430813092    0.945326160948724    0.548308047899428  0.0000
  O2     O2        0.058118362292999    0.967842586766428    0.318240440591822  0.0000
  O3     O3        0.073332122741659    0.984530742803683    0.813007382015613  0.0000
  O3     O3        0.997756508725067    0.943688271628688    0.056528626119408  0.0000
