data_c00091.vasp
_audit_creation_method             Generated by GULP
_audit_author_name                 Salvador R. G. Balestra
_symmetry_space_group_name_H-M     'P 1             '
_symmetry_Int_Tables_number        1

loop_
_symmetry_equiv_pos_site_id
_symmetry_equiv_pos_as_xyz
_cell_length_a                        9.1933
_cell_length_b                        7.7800
_cell_length_c                       10.3287
_cell_angle_alpha                   91.7568
_cell_angle_beta                   108.2848
_cell_angle_gamma                   87.9271

loop_
_atom_site_label
_atom_site_type_symbol
_atom_site_fract_x
_atom_site_fract_y
_atom_site_fract_z
_atom_site_charge
  Ge     Ge        0.313819999999964    0.296860000000038    0.309830000000034  0.0000
  Ge     Ge        0.690736551493180    0.246929864707156    0.704938473165840  0.0000
  Ge     Ge        0.325052988762095    0.318711679021169    0.624968714422947  0.0000
  Ge     Ge        0.714263861578636    0.629678449160157    0.395286996974056  0.0000
  Ge     Ge        0.386520477960593    0.720063268817451    0.632239472192567  0.0000
  Ge     Ge        0.913503634405816    0.942368935206566    0.383790750363630  0.0000
  Ge     Ge        0.144921941280740    0.009910249024054    0.690413600257353  0.0000
  Ge     Ge        0.934640862194610    0.951857516625297    0.878557990850680  0.0000
  Si     Si        0.740738300186063    0.647151168112426    0.709170359031618  0.0000
  Si     Si        0.355110907393142    0.691050875529167    0.315320624632291  0.0000
  Si     Si        0.677260738236808    0.232891483250565    0.396907559993059  0.0000
  Si     Si        0.120510043787541    0.981352809047621    0.189984730512261  0.0000
  O1     O1        0.253155930017442    0.312104607036191    0.449431199310079  0.0000
  O3     O3        0.748969787902794    0.220944714628829    0.561017923297860  0.0000
  O3     O3        0.785801506798594    0.632002995544501    0.571271164139475  0.0000
  O3     O3        0.314093229854307    0.703041736607551    0.455754068759934  0.0000
  O3     O3        0.318992800467287    0.500566519181926    0.249241339863433  0.0000
  O3     O3        0.719666466625041    0.460127475414857    0.760109085047065  0.0000
  O3     O3        0.497114080545198    0.205566509221313    0.359896435790732  0.0000
  O1     O1        0.500693829809167    0.211221693175166    0.671287387825637  0.0000
  O3     O3        0.580426057667643    0.754756127561130    0.678173989822020  0.0000
  O3     O3        0.533122563609017    0.726332341100647    0.344935145396298  0.0000
  O3     O3        0.196491976857047    0.163781529573228    0.187175501590397  0.0000
  O1     O1        0.797404866712450    0.111339674193045    0.826581346566661  0.0000
  O3     O3        0.869990303016990    0.749172258950692    0.822009474312460  0.0000
  O2     O2        0.252161129991484    0.830774337086139    0.211037909634384  0.0000
  O1     O1        0.347709199985859    0.525939109257380    0.687370562822327  0.0000
  O3     O3        0.704140788531761    0.417691840521541    0.342513462030859  0.0000
  O1     O1        0.194417585795182    0.218661098056686    0.681162981215494  0.0000
  O3     O3        0.762736185029994    0.091326975135673    0.330222931026539  0.0000
  O1     O1        0.833473558826427    0.743847812834925    0.335785063401086  0.0000
  O1     O1        0.305709186736657    0.885630842044554    0.697088631773005  0.0000
  O1     O1        0.990808530205672    0.945468102219176    0.557762501529478  0.0000
  O3     O3        0.058285811652604    0.983573346919898    0.319526995232633  0.0000
  O1     O1        0.094532116818780    0.992139765551233    0.835593605989939  0.0000
  O3     O3        0.983119091164582    0.947633405175573    0.055068211064683  0.0000
