data_c00011.vasp
_audit_creation_method             Generated by GULP
_audit_author_name                 Salvador R. G. Balestra
_symmetry_space_group_name_H-M     'P 1             '
_symmetry_Int_Tables_number        1

loop_
_symmetry_equiv_pos_site_id
_symmetry_equiv_pos_as_xyz
_cell_length_a                        9.1702
_cell_length_b                        7.6723
_cell_length_c                       10.2082
_cell_angle_alpha                   88.4324
_cell_angle_beta                   106.1031
_cell_angle_gamma                   90.4650

loop_
_atom_site_label
_atom_site_type_symbol
_atom_site_fract_x
_atom_site_fract_y
_atom_site_fract_z
_atom_site_charge
  Ge     Ge        0.313819999999964    0.296860000000038    0.309830000000034  0.0000
  Ge     Ge        0.661690716182824    0.362835531446549    0.724130296877872  0.0000
  Ge     Ge        0.636236705370114    0.766977281779024    0.706073859717735  0.0000
  Ge     Ge        0.253856282098541    0.704659904460533    0.308237233822872  0.0000
  Ge     Ge        0.314392938571049    0.281642536646979    0.634734307489305  0.0000
  Ge     Ge        0.613561502515430    0.781584786976407    0.384812487259900  0.0000
  Ge     Ge        0.852299780843454    0.076133365230651    0.352041991058956  0.0000
  Ge     Ge        0.057474678325949    0.029374881368146    0.150607369781622  0.0000
  Si     Si        0.653630181852340    0.384281466959012    0.404964627016416  0.0000
  Si     Si        0.283695372828200    0.684521331039611    0.626488950552370  0.0000
  Si     Si        0.078393915876095    0.988698869523350    0.640441873125494  0.0000
  Si     Si        0.873462299149819    0.044746855891373    0.833819670352917  0.0000
  O1     O1        0.271040220323717    0.255473611419205    0.462179068845157  0.0000
  O3     O3        0.638724829310633    0.429020436368942    0.554567121259633  0.0000
  O1     O1        0.683728447902082    0.809639517160875    0.557067014029391  0.0000
  O3     O3        0.228224446230956    0.652031376865090    0.465901532265243  0.0000
  O1     O1        0.266792247745155    0.503381171697536    0.243977826611501  0.0000
  O1     O1        0.677750330144546    0.567415507087792    0.789111328152629  0.0000
  O3     O3        0.507499654440170    0.269068560315590    0.332680459044677  0.0000
  O1     O1        0.502667338573321    0.240037298819742    0.715585165521661  0.0000
  O3     O3        0.440573175024912    0.791165554475852    0.663111251343443  0.0000
  O1     O1        0.421608651270941    0.817766309676335    0.329007775622078  0.0000
  O1     O1        0.219654036660000    0.150918903506721    0.193832072941432  0.0000
  O3     O3        0.819755524890430    0.245079792333186    0.807187810690109  0.0000
  O3     O3        0.728824253942252    0.921144710850633    0.821593391952206  0.0000
  O1     O1        0.102191552786499    0.819625488707626    0.211802135989582  0.0000
  O3     O3        0.299780389552536    0.492009814658183    0.692249574408636  0.0000
  O3     O3        0.650542129036535    0.574005362652487    0.334643269303504  0.0000
  O3     O3        0.194510888829942    0.145689756127724    0.693746490742324  0.0000
  O3     O3        0.800747228977754    0.273146351974781    0.407680888285762  0.0000
  O1     O1        0.708783998683624    0.928835542931576    0.309130214255713  0.0000
  O2     O2        0.164217400066911    0.802298712599263    0.675321540360474  0.0000
  O3     O3        0.008628196699908    0.001673770889565    0.478261275599040  0.0000
  O1     O1        0.918293245381181    0.115163648532980    0.212096002318703  0.0000
  O2     O2        0.943981363882182    0.989394240386928    0.712215412355695  0.0000
  O3     O3        0.997870763872409    0.022509301436184    0.975262682909935  0.0000
