data_c00032.vasp
_audit_creation_method             Generated by GULP
_audit_author_name                 Salvador R. G. Balestra
_symmetry_space_group_name_H-M     'P 1             '
_symmetry_Int_Tables_number        1

loop_
_symmetry_equiv_pos_site_id
_symmetry_equiv_pos_as_xyz
_cell_length_a                        9.1058
_cell_length_b                        7.7098
_cell_length_c                       10.1350
_cell_angle_alpha                   88.2899
_cell_angle_beta                   106.0379
_cell_angle_gamma                   91.0754

loop_
_atom_site_label
_atom_site_type_symbol
_atom_site_fract_x
_atom_site_fract_y
_atom_site_fract_z
_atom_site_charge
  Ge     Ge        0.313819999999964    0.296860000000038    0.309830000000034  0.0000
  Ge     Ge        0.682271442161005    0.360706476570639    0.714091924444241  0.0000
  Ge     Ge        0.625588612248057    0.764668197666345    0.707555733589460  0.0000
  Ge     Ge        0.317458920051239    0.287555596106948    0.629153918471995  0.0000
  Ge     Ge        0.673229119649974    0.380409622790312    0.389144597332591  0.0000
  Ge     Ge        0.627177542560036    0.784639646703738    0.384090765199817  0.0000
  Ge     Ge        0.075659522976960    0.995018188240381    0.675296776853093  0.0000
  Ge     Ge        0.071858154899886    0.010061991917281    0.175084015429526  0.0000
  Si     Si        0.278237808693172    0.700782590863495    0.300212820850628  0.0000
  Si     Si        0.272861835222221    0.691034532720423    0.611338009187178  0.0000
  Si     Si        0.868961757075956    0.071712044629312    0.376086688807989  0.0000
  Si     Si        0.865624184634284    0.039642210791775    0.869501642510085  0.0000
  O1     O1        0.253919716031972    0.260726876839910    0.454955913941391  0.0000
  O1     O1        0.725424920767451    0.407919248856581    0.563474323497662  0.0000
  O1     O1        0.681711184541752    0.790815957607085    0.559977761235563  0.0000
  O2     O2        0.242416280795598    0.669716439085462    0.447346043336983  0.0000
  O3     O3        0.297560887830947    0.511854855543745    0.248734730750978  0.0000
  O1     O1        0.667042831493467    0.561082064504220    0.779752903775391  0.0000
  O1     O1        0.506009776564821    0.260306633476664    0.348909497044885  0.0000
  O1     O1        0.510106789739744    0.251575096658227    0.683114800010469  0.0000
  O3     O3        0.429973634707840    0.797456915831952    0.669731325164475  0.0000
  O3     O3        0.431638059511023    0.817996232071913    0.326305502985901  0.0000
  O1     O1        0.209064075886701    0.167176584068021    0.182668749506143  0.0000
  O3     O3        0.826156210737838    0.237402073695869    0.819678235504245  0.0000
  O3     O3        0.715439150104965    0.921150179326473    0.820242507218377  0.0000
  O3     O3        0.146555779852796    0.803403566936719    0.190729265282066  0.0000
  O3     O3        0.287398214535329    0.497501175470444    0.674582411818593  0.0000
  O1     O1        0.658171067778277    0.586680566234973    0.322266800457194  0.0000
  O1     O1        0.220051385955333    0.145408755829615    0.707973305259723  0.0000
  O3     O3        0.806732084710497    0.265479637906378    0.335716897519493  0.0000
  O3     O3        0.729261148036649    0.937801983835814    0.318914253147377  0.0000
  O3     O3        0.136528687563314    0.792296277439374    0.643774959542709  0.0000
  O3     O3        0.921861514908983    0.057230612899009    0.541828754400044  0.0000
  O3     O3        0.011141055497657    0.033702137988084    0.321109353438458  0.0000
  O3     O3        0.005527428494511    0.971097558203708    0.817308407124298  0.0000
  O3     O3        0.918845842438896    0.031997451108770    0.034276899627459  0.0000
