data_c00061.vasp
_audit_creation_method             Generated by GULP
_audit_author_name                 Salvador R. G. Balestra
_symmetry_space_group_name_H-M     'P 1             '
_symmetry_Int_Tables_number        1

loop_
_symmetry_equiv_pos_site_id
_symmetry_equiv_pos_as_xyz
_cell_length_a                        9.0404
_cell_length_b                        7.7581
_cell_length_c                       10.3867
_cell_angle_alpha                   87.3490
_cell_angle_beta                   107.0279
_cell_angle_gamma                   92.2743

loop_
_atom_site_label
_atom_site_type_symbol
_atom_site_fract_x
_atom_site_fract_y
_atom_site_fract_z
_atom_site_charge
  Ge     Ge        0.313819999999964    0.296860000000038    0.309830000000034  0.0000
  Ge     Ge        0.672260144522481    0.339899111037488    0.710436156817349  0.0000
  Ge     Ge        0.637033491530002    0.742980247998532    0.704948500010419  0.0000
  Ge     Ge        0.680009815524112    0.378043112460529    0.398234333274111  0.0000
  Ge     Ge        0.615485315787936    0.778388935020223    0.387081810922225  0.0000
  Ge     Ge        0.266221494391127    0.672227391783811    0.613347133488838  0.0000
  Ge     Ge        0.857966190348356    0.066081516181675    0.333062468817061  0.0000
  Ge     Ge        0.072795096824284    0.007286904774675    0.139946443712398  0.0000
  Si     Si        0.256388032382654    0.694298135677908    0.307584296938297  0.0000
  Si     Si        0.307315568357215    0.271620912108874    0.612745382385270  0.0000
  Si     Si        0.072080427569425    0.978603138901910    0.630817652886690  0.0000
  Si     Si        0.879527253475000    0.028011932595088    0.833200181085720  0.0000
  O3     O3        0.248031156321022    0.265401250928538    0.450596538302158  0.0000
  O1     O1        0.733149239924307    0.380666110925023    0.570932813853064  0.0000
  O1     O1        0.689728171718790    0.773322067663806    0.559626095742317  0.0000
  O3     O3        0.199500149846293    0.666893250104335    0.439805189610573  0.0000
  O3     O3        0.283337143766378    0.511036437704878    0.254235803131401  0.0000
  O1     O1        0.663842373033535    0.536323244314421    0.774163599294431  0.0000
  O1     O1        0.506631733866664    0.262801548120550    0.348543364791382  0.0000
  O3     O3        0.489860058868081    0.238520670637026    0.661505296601379  0.0000
  O1     O1        0.442137372089051    0.775750444882334    0.666899243783527  0.0000
  O3     O3        0.417842792558979    0.803419831584840    0.348701508142827  0.0000
  O1     O1        0.216777205263463    0.160976747803607    0.187899357914378  0.0000
  O3     O3        0.800399568301929    0.210980528320280    0.826576598367083  0.0000
  O3     O3        0.746710229904772    0.881502302271425    0.823294707390444  0.0000
  O3     O3        0.130980294895413    0.800830966891938    0.194977381743252  0.0000
  O3     O3        0.279179294843965    0.456553782217734    0.665765296647709  0.0000
  O1     O1        0.656684670340853    0.584493025226495    0.332469645855673  0.0000
  O2     O2        0.210959426203678    0.123718148121623    0.670917329068498  0.0000
  O1     O1        0.819221496229231    0.276455826262155    0.351381814799763  0.0000
  O1     O1        0.690050503972019    0.945027244293201    0.312293748242656  0.0000
  O3     O3        0.140848272851482    0.788976401890037    0.671791402253465  0.0000
  O3     O3        0.997164381240242    0.982098976516617    0.470738086441722  0.0000
  O1     O1        0.918517362543946    0.058082278263945    0.192722713119134  0.0000
  O2     O2        0.943058737460461    0.016559205142271    0.702860547049670  0.0000
  O3     O3        0.019099835975908    0.004997279311542    0.966075871057762  0.0000
