data_c00079.vasp
_audit_creation_method             Generated by GULP
_audit_author_name                 Salvador R. G. Balestra
_symmetry_space_group_name_H-M     'P 1             '
_symmetry_Int_Tables_number        1

loop_
_symmetry_equiv_pos_site_id
_symmetry_equiv_pos_as_xyz
_cell_length_a                        9.2873
_cell_length_b                        7.7740
_cell_length_c                       10.2583
_cell_angle_alpha                   85.1552
_cell_angle_beta                   108.2598
_cell_angle_gamma                   90.8053

loop_
_atom_site_label
_atom_site_type_symbol
_atom_site_fract_x
_atom_site_fract_y
_atom_site_fract_z
_atom_site_charge
  Ge     Ge        0.313819999999964    0.296860000000038    0.309830000000034  0.0000
  Ge     Ge        0.703861895085192    0.280187911272427    0.702792856275424  0.0000
  Ge     Ge        0.660936699378047    0.697699224112668    0.713033202537545  0.0000
  Ge     Ge        0.631195653761680    0.748732139276075    0.393478270994623  0.0000
  Ge     Ge        0.854434051323461    0.050535203555889    0.323234102695776  0.0000
  Ge     Ge        0.113495582324531    0.941864985905982    0.623747965095412  0.0000
  Ge     Ge        0.088079702132743    0.999619118037630    0.164113823014919  0.0000
  Ge     Ge        0.919659049718107    0.956777613641628    0.846081019020634  0.0000
  Si     Si        0.295086403525258    0.683088184425683    0.320677885681029  0.0000
  Si     Si        0.348323902490931    0.231451311052188    0.632730677204457  0.0000
  Si     Si        0.671997722682843    0.341447625268032    0.390222880217489  0.0000
  Si     Si        0.326415159379461    0.620909804306370    0.632295977757925  0.0000
  O3     O3        0.307840604411212    0.212798534672396    0.469303223409716  0.0000
  O3     O3        0.710201976554538    0.239657133450715    0.541024710201894  0.0000
  O1     O1        0.659195156511322    0.804388039865797    0.557489177449296  0.0000
  O2     O2        0.368300768028596    0.631905669242893    0.487622453282530  0.0000
  O3     O3        0.235701801283712    0.503810189292003    0.259258024439523  0.0000
  O1     O1        0.732314650882565    0.492075204857509    0.729184001653180  0.0000
  O3     O3        0.496980321591394    0.314153014028457    0.305931873216864  0.0000
  O3     O3        0.526602737102833    0.212108737751469    0.708675186384197  0.0000
  O3     O3        0.482332345374647    0.682071736280083    0.736316681847535  0.0000
  O3     O3        0.443164288864700    0.758229718698132    0.287014081543170  0.0000
  O1     O1        0.213456801423058    0.166443162285181    0.190072724860652  0.0000
  O1     O1        0.845473232189147    0.163040868500826    0.821353757351281  0.0000
  O1     O1        0.774391222621548    0.814267194303786    0.838150493358014  0.0000
  O3     O3        0.163178847983057    0.822565477435306    0.281849538600208  0.0000
  O2     O2        0.292724848934464    0.418583873036686    0.661978039753765  0.0000
  O3     O3        0.705723954984618    0.542442115149067    0.404457768556900  0.0000
  O3     O3        0.259401985217426    0.082781261113858    0.691934870014390  0.0000
  O3     O3        0.775986170614030    0.253451014594330    0.315829927273013  0.0000
  O1     O1        0.725357682654383    0.890807845877147    0.314449942031010  0.0000
  O3     O3        0.184739380178543    0.734711763433939    0.625610019901489  0.0000
  O1     O1        0.017777145298505    0.019842313043404    0.460049147273680  0.0000
  O1     O1        0.918801985156675    0.053618422914985    0.182744448304393  0.0000
  O1     O1        0.994485613495668    0.912024720710382    0.718982083539519  0.0000
  O1     O1        0.058375140221546    0.936561902098033    0.001887731497838  0.0000
