data_c00066.vasp
_audit_creation_method             Generated by GULP
_audit_author_name                 Salvador R. G. Balestra
_symmetry_space_group_name_H-M     'P 1             '
_symmetry_Int_Tables_number        1

loop_
_symmetry_equiv_pos_site_id
_symmetry_equiv_pos_as_xyz
_cell_length_a                        9.1519
_cell_length_b                        7.7144
_cell_length_c                       10.3360
_cell_angle_alpha                   87.4970
_cell_angle_beta                   107.5222
_cell_angle_gamma                   91.8704

loop_
_atom_site_label
_atom_site_type_symbol
_atom_site_fract_x
_atom_site_fract_y
_atom_site_fract_z
_atom_site_charge
  Ge     Ge        0.313819999999964    0.296860000000038    0.309830000000034  0.0000
  Ge     Ge        0.682972756732014    0.347212581524486    0.710035948385879  0.0000
  Ge     Ge        0.638380275369938    0.750953920748341    0.701380344549057  0.0000
  Ge     Ge        0.676322859657971    0.379777205053859    0.391418610502293  0.0000
  Ge     Ge        0.610237623785946    0.784129105175156    0.376621223299172  0.0000
  Ge     Ge        0.855787864280861    0.069448082358260    0.322168198338217  0.0000
  Ge     Ge        0.085281267437020    0.981212597162621    0.625429763772699  0.0000
  Ge     Ge        0.069564592040782    0.009920583044901    0.136666226418114  0.0000
  Si     Si        0.259086714291235    0.700610130593444    0.305589865071674  0.0000
  Si     Si        0.323669591622980    0.275132083010774    0.617918615515127  0.0000
  Si     Si        0.282898067414940    0.673224142541374    0.615005587620847  0.0000
  Si     Si        0.884792327362334    0.030365881438938    0.828222351263978  0.0000
  O3     O3        0.259025355365009    0.257093208910738    0.455448502312901  0.0000
  O1     O1        0.734457834639676    0.382952699109400    0.565352355250059  0.0000
  O1     O1        0.680115962110567    0.781853479757907    0.550864486284743  0.0000
  O2     O2        0.227764374038682    0.678476466869597    0.451100065083051  0.0000
  O3     O3        0.278475243678058    0.512248907117314    0.255234729808261  0.0000
  O1     O1        0.678344028634768    0.545978493116359    0.773332830122548  0.0000
  O1     O1        0.504628405626718    0.264447835234001    0.343083859305232  0.0000
  O3     O3        0.504187702515981    0.241314774750680    0.667488043883249  0.0000
  O3     O3        0.443367702020328    0.776489209801010    0.667971561876579  0.0000
  O3     O3        0.414373224701253    0.814394745722812    0.324986709445916  0.0000
  O1     O1        0.211853853151249    0.163543488779587    0.186556753282355  0.0000
  O3     O3        0.817323576307218    0.220784128324502    0.824500961011990  0.0000
  O3     O3        0.744232060991103    0.894793085267869    0.817316307794004  0.0000
  O3     O3        0.122090078653774    0.802507503266753    0.201370673365747  0.0000
  O2     O2        0.301687124356879    0.470778195191697    0.663048500072780  0.0000
  O1     O1        0.650406494121102    0.587026096301993    0.324784993551147  0.0000
  O3     O3        0.227802243391400    0.139390094311805    0.682413769219599  0.0000
  O1     O1        0.814229037237752    0.279714742307519    0.343514647711921  0.0000
  O1     O1        0.691409858368729    0.947806063920147    0.305482771427992  0.0000
  O3     O3        0.162471576379366    0.774391340796618    0.666219387606517  0.0000
  O1     O1        0.005431121544166    0.992174056274400    0.453552171063817  0.0000
  O1     O1        0.910717861264520    0.065211692632122    0.177957383953926  0.0000
  O3     O3        0.941674598861602    0.006857015517080    0.696738784737246  0.0000
  O3     O3        0.023960547441122    0.998235047460553    0.961786872065070  0.0000
