data_c00022.vasp
_audit_creation_method             Generated by GULP
_audit_author_name                 Salvador R. G. Balestra
_symmetry_space_group_name_H-M     'P 1             '
_symmetry_Int_Tables_number        1

loop_
_symmetry_equiv_pos_site_id
_symmetry_equiv_pos_as_xyz
_cell_length_a                        9.0446
_cell_length_b                        7.7465
_cell_length_c                       10.2784
_cell_angle_alpha                   90.5027
_cell_angle_beta                   104.8809
_cell_angle_gamma                   91.1030

loop_
_atom_site_label
_atom_site_type_symbol
_atom_site_fract_x
_atom_site_fract_y
_atom_site_fract_z
_atom_site_charge
  Ge     Ge        0.313819999999964    0.296860000000038    0.309830000000034  0.0000
  Ge     Ge        0.676089596805740    0.383793566494815    0.711721371699787  0.0000
  Ge     Ge        0.619619977708363    0.788822214657776    0.690138765894942  0.0000
  Ge     Ge        0.272882545496713    0.700665829636362    0.288748473128256  0.0000
  Ge     Ge        0.308089729185622    0.312371792905279    0.623026973711120  0.0000
  Ge     Ge        0.866626571799046    0.064768215523847    0.384652376905247  0.0000
  Ge     Ge        0.070652973660297    0.012050907147203    0.168431340550709  0.0000
  Ge     Ge        0.865989633218318    0.071453118179961    0.863794935024744  0.0000
  Si     Si        0.670097744952935    0.376926593335711    0.402672023000761  0.0000
  Si     Si        0.626680173432047    0.773061949647826    0.383234547762697  0.0000
  Si     Si        0.262890086813254    0.713266629447777    0.597906862518283  0.0000
  Si     Si        0.080165356630297    0.019293474745690    0.675314200590325  0.0000
  O1     O1        0.247581112198027    0.281292893521969    0.452544450360835  0.0000
  O3     O3        0.731576942540127    0.390962248884503    0.562991822998632  0.0000
  O3     O3        0.679649080979662    0.802361582352821    0.543750819490977  0.0000
  O3     O3        0.216417763379954    0.688229778771726    0.437726339388840  0.0000
  O1     O1        0.280858558791086    0.495218659773449    0.234915222742980  0.0000
  O1     O1        0.663212022169340    0.592410959429459    0.763527007113429  0.0000
  O3     O3        0.508884693617833    0.272828346221461    0.367531635178991  0.0000
  O1     O1        0.500077287312167    0.281383683631723    0.684498737863876  0.0000
  O3     O3        0.424275200531524    0.815023701399181    0.645540082927968  0.0000
  O3     O3        0.448499012440832    0.811332457668772    0.325056847834334  0.0000
  O1     O1        0.225338270658855    0.152280011166249    0.188145489719022  0.0000
  O1     O1        0.815533474264850    0.280627208620753    0.827091588312557  0.0000
  O1     O1        0.704151841742775    0.948427861003604    0.799378097835341  0.0000
  O1     O1        0.141799003475162    0.808397159182645    0.170139246861104  0.0000
  O3     O3        0.273625043138660    0.525266129119785    0.663309056230364  0.0000
  O2     O2        0.646665509580348    0.571338114193587    0.344559364726361  0.0000
  O3     O3        0.210294726683771    0.167812822174393    0.698768965161317  0.0000
  O3     O3        0.784171378905989    0.265581935026849    0.342439054876707  0.0000
  O3     O3        0.732120441936396    0.899904789418229    0.322741515151138  0.0000
  O2     O2        0.138273260571042    0.832046446004894    0.641215718993602  0.0000
  O3     O3        0.932303419316957    0.067715923929154    0.558320262501830  0.0000
  O1     O1        0.014287973117373    0.042310702759442    0.315201167585675  0.0000
  O3     O3        0.022669101071693    0.004612776930395    0.810305852665977  0.0000
  O1     O1        0.920353302972928    0.049852654765473    0.035729062147464  0.0000
