data_c00047.vasp
_audit_creation_method             Generated by GULP
_audit_author_name                 Salvador R. G. Balestra
_symmetry_space_group_name_H-M     'P 1             '
_symmetry_Int_Tables_number        1

loop_
_symmetry_equiv_pos_site_id
_symmetry_equiv_pos_as_xyz
_cell_length_a                        9.2479
_cell_length_b                        7.7961
_cell_length_c                       10.2049
_cell_angle_alpha                   84.9757
_cell_angle_beta                   108.9558
_cell_angle_gamma                   90.5886

loop_
_atom_site_label
_atom_site_type_symbol
_atom_site_fract_x
_atom_site_fract_y
_atom_site_fract_z
_atom_site_charge
  Ge     Ge        0.313819999999964    0.296860000000038    0.309830000000034  0.0000
  Ge     Ge        0.714227080652066    0.273998341323246    0.713268795751750  0.0000
  Ge     Ge        0.673999978508688    0.692508255822185    0.723988498942604  0.0000
  Ge     Ge        0.347650304109385    0.227101298762272    0.643247645168346  0.0000
  Ge     Ge        0.654500631347428    0.732475012264599    0.403986125900416  0.0000
  Ge     Ge        0.325278811816265    0.624643952358372    0.639415864428925  0.0000
  Ge     Ge        0.875347543299276    0.039835330980553    0.351578310305984  0.0000
  Ge     Ge        0.934637637074682    0.951038175750648    0.868425975787081  0.0000
  Si     Si        0.313455505749834    0.677175378364748    0.324719143423656  0.0000
  Si     Si        0.675279505971483    0.328178815335356    0.396410549511631  0.0000
  Si     Si        0.119354898571216    0.937588654838925    0.652376024803587  0.0000
  Si     Si        0.106512369333964    0.995544048117052    0.185904465405766  0.0000
  O1     O1        0.302231380841328    0.213505156504074    0.466565620035571  0.0000
  O3     O3        0.702627021706459    0.226565821798020    0.547261672160990  0.0000
  O1     O1        0.673379033423219    0.794340134925624    0.565735968516045  0.0000
  O3     O3        0.377169637605157    0.608413306424660    0.489727050746636  0.0000
  O3     O3        0.239846503386222    0.507019761415251    0.254362469406361  0.0000
  O1     O1        0.743847735806171    0.486395024788260    0.738313253760975  0.0000
  O3     O3        0.497874504221053    0.317887162552217    0.306734487654145  0.0000
  O1     O1        0.540598999306802    0.214578055272789    0.728727951212897  0.0000
  O1     O1        0.496659880742266    0.689729002329449    0.746642304957079  0.0000
  O3     O3        0.464793112690400    0.744992640177236    0.294125768650204  0.0000
  O3     O3        0.216165613773490    0.157235974455827    0.191379201331960  0.0000
  O1     O1        0.864771535686300    0.158100609234688    0.828863681902672  0.0000
  O1     O1        0.787396565685749    0.811465497318718    0.850010194741710  0.0000
  O2     O2        0.192289213152223    0.834311077787565    0.296251250648102  0.0000
  O1     O1        0.281309841709344    0.417240575827453    0.679036090874244  0.0000
  O3     O3        0.724461356711077    0.524261460821781    0.416938272287538  0.0000
  O3     O3        0.266290216432326    0.054322918720150    0.710335393500778  0.0000
  O3     O3        0.773259946105397    0.232512453445171    0.320612452412824  0.0000
  O1     O1        0.759336461341728    0.866359938859514    0.330046754982219  0.0000
  O3     O3        0.170364926091769    0.755482601654361    0.614895792278076  0.0000
  O3     O3        0.007635499135165    0.041104519532775    0.515044422330362  0.0000
  O3     O3        0.960396434945585    0.051456883390788    0.223785973081516  0.0000
  O3     O3        0.036235671961418    0.890519961127583    0.764139911030461  0.0000
  O3     O3        0.060797365582007    0.927880497752925    0.035579472835050  0.0000
