data_c00099.vasp
_audit_creation_method             Generated by GULP
_audit_author_name                 Salvador R. G. Balestra
_symmetry_space_group_name_H-M     'P 1             '
_symmetry_Int_Tables_number        1

loop_
_symmetry_equiv_pos_site_id
_symmetry_equiv_pos_as_xyz
_cell_length_a                        9.2081
_cell_length_b                        7.7762
_cell_length_c                        9.9823
_cell_angle_alpha                   83.7813
_cell_angle_beta                   107.8680
_cell_angle_gamma                   91.9246

loop_
_atom_site_label
_atom_site_type_symbol
_atom_site_fract_x
_atom_site_fract_y
_atom_site_fract_z
_atom_site_charge
  Ge     Ge        0.313819999999964    0.296860000000038    0.309830000000034  0.0000
  Ge     Ge        0.650090429465155    0.687711842591082    0.740202773237078  0.0000
  Ge     Ge        0.331974295681422    0.221280147362066    0.648403881094247  0.0000
  Ge     Ge        0.679083267511693    0.352789006119327    0.405079251766129  0.0000
  Ge     Ge        0.633039460163702    0.760889086656785    0.413757727155113  0.0000
  Ge     Ge        0.301087751712395    0.614651354639558    0.658040754403733  0.0000
  Ge     Ge        0.871514690742805    0.057287997574452    0.347120955181489  0.0000
  Ge     Ge        0.899428397010635    0.963812553337884    0.864273254475768  0.0000
  Si     Si        0.688307003346708    0.281684759048112    0.723991141903537  0.0000
  Si     Si        0.292260583992265    0.681079064145417    0.330532989991748  0.0000
  Si     Si        0.099201566275046    0.931754633005483    0.652677129070690  0.0000
  Si     Si        0.092934772169196    0.000368245852394    0.175269184568044  0.0000
  O1     O1        0.307823404327128    0.208587577999811    0.472765695660460  0.0000
  O3     O3        0.689078459693084    0.243745985304034    0.569015441841256  0.0000
  O1     O1        0.643350771154270    0.804509149034940    0.580939014002204  0.0000
  O3     O3        0.347381426054307    0.626566215879950    0.500176656832657  0.0000
  O3     O3        0.233137341185078    0.504042399011857    0.263447621930845  0.0000
  O3     O3        0.719526445758698    0.483241348587887    0.741254163991124  0.0000
  O1     O1        0.495219905424499    0.320800995155221    0.299954268791426  0.0000
  O3     O3        0.523925846250839    0.228971274977735    0.741048660104285  0.0000
  O1     O1        0.474755973210337    0.671063549709618    0.768808479606531  0.0000
  O3     O3        0.446367595895837    0.753031112638288    0.301632388340553  0.0000
  O3     O3        0.210031975477747    0.158959473737347    0.191562204443196  0.0000
  O3     O3        0.817147922789329    0.165866055565890    0.839508564030962  0.0000
  O1     O1        0.770314292269682    0.801473373974426    0.867707869166179  0.0000
  O2     O2        0.164144776776733    0.829613708283129    0.282324328833216  0.0000
  O1     O1        0.252701317552451    0.402033333293334    0.682644940130481  0.0000
  O1     O1        0.719424564523292    0.567269520485321    0.417685959092135  0.0000
  O3     O3        0.250854100131072    0.042060249679539    0.716880795625014  0.0000
  O1     O1        0.810243747280162    0.264142157315382    0.343820161900275  0.0000
  O1     O1        0.719414119500325    0.923624692110548    0.336783469831300  0.0000
  O3     O3        0.149005930028508    0.733414544114076    0.659541495757925  0.0000
  O3     O3        0.029655350773005    0.012925102268088    0.491543457350137  0.0000
  O3     O3        0.937794581993830    0.049467698097473    0.203204669592379  0.0000
  O3     O3        0.970346653753418    0.933162192871038    0.726903694352405  0.0000
  O3     O3        0.051535610622286    0.949911347713239    0.016687333337784  0.0000
