data_c00044.vasp
_audit_creation_method             Generated by GULP
_audit_author_name                 Salvador R. G. Balestra
_symmetry_space_group_name_H-M     'P 1             '
_symmetry_Int_Tables_number        1

loop_
_symmetry_equiv_pos_site_id
_symmetry_equiv_pos_as_xyz
_cell_length_a                        9.3066
_cell_length_b                        7.7564
_cell_length_c                       10.1398
_cell_angle_alpha                   84.1178
_cell_angle_beta                   108.4770
_cell_angle_gamma                   90.9641

loop_
_atom_site_label
_atom_site_type_symbol
_atom_site_fract_x
_atom_site_fract_y
_atom_site_fract_z
_atom_site_charge
  Ge     Ge        0.313819999999964    0.296860000000038    0.309830000000034  0.0000
  Ge     Ge        0.717418829400271    0.260500494132872    0.724296456024254  0.0000
  Ge     Ge        0.667656625756290    0.681127761109263    0.726408734677367  0.0000
  Ge     Ge        0.353083291385987    0.216223668130333    0.646010236811185  0.0000
  Ge     Ge        0.683359678908991    0.326361946602403    0.394920234646954  0.0000
  Ge     Ge        0.112553982375461    0.920321901021501    0.637619942241410  0.0000
  Ge     Ge        0.100243091673538    0.988592706428502    0.183210181920348  0.0000
  Ge     Ge        0.929362986777569    0.933242428153019    0.866006136451290  0.0000
  Si     Si        0.323551375574637    0.676311446976685    0.337873094457029  0.0000
  Si     Si        0.659747742514981    0.732161286358179    0.408612506982506  0.0000
  Si     Si        0.332186323591142    0.607086216393143    0.645951986472583  0.0000
  Si     Si        0.866968315335364    0.031675559785332    0.336856397718876  0.0000
  O1     O1        0.301945698407713    0.208252871286370    0.467836518046501  0.0000
  O1     O1        0.732194015126058    0.233429263341326    0.562849237384424  0.0000
  O3     O3        0.677176614664931    0.771139256165569    0.564985523947031  0.0000
  O2     O2        0.374325109440959    0.587359485797398    0.501011021250584  0.0000
  O3     O3        0.253980725120735    0.513877040312559    0.256255617998903  0.0000
  O1     O1        0.732571809631351    0.471524219006604    0.758332147650467  0.0000
  O1     O1        0.497221139881270    0.296578960123367    0.307600381548960  0.0000
  O1     O1        0.543334422377050    0.180922012964756    0.723005872388517  0.0000
  O3     O3        0.485378769490071    0.687922884563847    0.740347739857001  0.0000
  O2     O2        0.481331216785482    0.741775230821639    0.313720262131684  0.0000
  O1     O1        0.196059116496675    0.178214116582573    0.187149538521572  0.0000
  O1     O1        0.865594197017002    0.144308419488495    0.842181288956407  0.0000
  O1     O1        0.775329178020208    0.801918651010988    0.850746197522982  0.0000
  O3     O3        0.211681334534374    0.836057762979077    0.312016052755995  0.0000
  O3     O3        0.305982456885511    0.410797029872254    0.696198964018881  0.0000
  O3     O3        0.726685801385302    0.545415477741372    0.401982572076786  0.0000
  O1     O1        0.253824728433637    0.058819926862751    0.709207736253195  0.0000
  O3     O3        0.791308355810433    0.220815039320708    0.315665615305748  0.0000
  O2     O2        0.745581845734672    0.883077755549304    0.344500026502361  0.0000
  O3     O3        0.185616315273864    0.720992598023479    0.622416812007657  0.0000
  O3     O3        0.014142045501083    0.015404677006704    0.473367855190074  0.0000
  O3     O3        0.925550537100344    0.012616258243684    0.206655199074098  0.0000
  O1     O1        0.002343960475007    0.874745033247357    0.740764233055874  0.0000
  O1     O1        0.066034171785788    0.907056009313870    0.026083339617223  0.0000
