data_c00030.vasp
_audit_creation_method             Generated by GULP
_audit_author_name                 Salvador R. G. Balestra
_symmetry_space_group_name_H-M     'P 1             '
_symmetry_Int_Tables_number        1

loop_
_symmetry_equiv_pos_site_id
_symmetry_equiv_pos_as_xyz
_cell_length_a                        9.1449
_cell_length_b                        7.7237
_cell_length_c                       10.2496
_cell_angle_alpha                   84.9939
_cell_angle_beta                   108.1571
_cell_angle_gamma                   91.6477

loop_
_atom_site_label
_atom_site_type_symbol
_atom_site_fract_x
_atom_site_fract_y
_atom_site_fract_z
_atom_site_charge
  Ge     Ge        0.313819999999964    0.296860000000038    0.309830000000034  0.0000
  Ge     Ge        0.699613229035301    0.308807690679117    0.717399698776301  0.0000
  Ge     Ge        0.652304224031254    0.715374488257498    0.722759370677784  0.0000
  Ge     Ge        0.325602532300845    0.248290833347369    0.627065615693281  0.0000
  Ge     Ge        0.683031510068665    0.377373118419441    0.395795600198822  0.0000
  Ge     Ge        0.617371059930338    0.783295373222000    0.388024621574526  0.0000
  Ge     Ge        0.863481062677503    0.071626206398290    0.333581542977416  0.0000
  Ge     Ge        0.081935085188051    0.004447705058670    0.156909164617759  0.0000
  Si     Si        0.275367674823487    0.688585138451012    0.323183584597121  0.0000
  Si     Si        0.304579529720499    0.640906109974513    0.640958684976011  0.0000
  Si     Si        0.094286493805270    0.949228305763869    0.636643855286036  0.0000
  Si     Si        0.906979217825394    0.982205124644948    0.845129282042378  0.0000
  O1     O1        0.254392450739994    0.239386070114146    0.451597979973410  0.0000
  O1     O1        0.751220090184320    0.356070127917760    0.572244480491547  0.0000
  O1     O1        0.673191569761146    0.774234096161618    0.564606137079678  0.0000
  O2     O2        0.309484031365906    0.618223588335525    0.484740697956599  0.0000
  O3     O3        0.267903163777152    0.513153961802909    0.249118119824506  0.0000
  O1     O1        0.694729444891875    0.503173796760373    0.783671205754287  0.0000
  O1     O1        0.507613635218155    0.271911547462985    0.349625699469982  0.0000
  O1     O1        0.520170212501213    0.211597174717557    0.678171837861916  0.0000
  O3     O3        0.460755260863593    0.737276159394923    0.716711940714048  0.0000
  O3     O3        0.419823979331518    0.809647052252274    0.317312645282014  0.0000
  O1     O1        0.218700629156934    0.163186857158632    0.185566647825244  0.0000
  O3     O3        0.839724865447595    0.175176196158119    0.829097480389813  0.0000
  O3     O3        0.766856354475412    0.849390469697348    0.838617074946479  0.0000
  O3     O3        0.128427415706834    0.807971220965749    0.258571663525722  0.0000
  O3     O3        0.294346013516254    0.440932602348865    0.693145445903201  0.0000
  O1     O1        0.663809202887778    0.591370077952610    0.337430926296625  0.0000
  O3     O3        0.227736338624916    0.086845461749613    0.694995565333199  0.0000
  O1     O1        0.816050096367804    0.282972112566074    0.339608280904244  0.0000
  O1     O1        0.698972516888109    0.953466601163778    0.320746918315752  0.0000
  O2     O2        0.163051985515010    0.754079471789006    0.648781642835769  0.0000
  O3     O3        0.009709727507235    0.993725870787608    0.476588242125075  0.0000
  O1     O1        0.921367451561673    0.069337483087155    0.191005163569251  0.0000
  O2     O2        0.971632729572398    0.944415999986051    0.720039656569835  0.0000
  O3     O3        0.040619972188385    0.955019564110748    0.987861413849131  0.0000
