data_c00051.vasp
_audit_creation_method             Generated by GULP
_audit_author_name                 Salvador R. G. Balestra
_symmetry_space_group_name_H-M     'P 1             '
_symmetry_Int_Tables_number        1

loop_
_symmetry_equiv_pos_site_id
_symmetry_equiv_pos_as_xyz
_cell_length_a                        9.3098
_cell_length_b                        7.7356
_cell_length_c                       10.3236
_cell_angle_alpha                   85.0440
_cell_angle_beta                   109.8151
_cell_angle_gamma                   90.2093

loop_
_atom_site_label
_atom_site_type_symbol
_atom_site_fract_x
_atom_site_fract_y
_atom_site_fract_z
_atom_site_charge
  Ge     Ge        0.313819999999964    0.296860000000038    0.309830000000034  0.0000
  Ge     Ge        0.722227686144568    0.290268633714086    0.704465117111279  0.0000
  Ge     Ge        0.676194114331205    0.710370726626919    0.710009107869512  0.0000
  Ge     Ge        0.355029134355743    0.242142625868289    0.631807161066663  0.0000
  Ge     Ge        0.631243148759609    0.758298938383637    0.379377985797769  0.0000
  Ge     Ge        0.858712542392246    0.054706151298848    0.321399950291885  0.0000
  Ge     Ge        0.117950426170981    0.949841979145136    0.634492024187776  0.0000
  Ge     Ge        0.087764721635967    0.005428812450851    0.159816454423711  0.0000
  Si     Si        0.294894723044568    0.687168003919965    0.318098869632316  0.0000
  Si     Si        0.674600773025823    0.345373509297836    0.388314100870401  0.0000
  Si     Si        0.337014380680268    0.636813809893886    0.633423965979139  0.0000
  Si     Si        0.930930336149453    0.963864031144777    0.845901090724270  0.0000
  O1     O1        0.270382566808145    0.234745904014551    0.455576759478213  0.0000
  O3     O3        0.760989385208342    0.300901341516139    0.551658062223082  0.0000
  O1     O1        0.688891696323511    0.785541292539140    0.552334401523300  0.0000
  O2     O2        0.355433384450485    0.611903177371727    0.482166133971237  0.0000
  O3     O3        0.261556562836706    0.511589777689001    0.243037011978236  0.0000
  O1     O1        0.727502545225984    0.495045764837489    0.754940335157030  0.0000
  O3     O3        0.507466430779416    0.264280943660952    0.352470166414362  0.0000
  O1     O1        0.547959819758106    0.199134247759359    0.682881863351625  0.0000
  O3     O3        0.491018064103365    0.731662145145525    0.713497531923065  0.0000
  O3     O3        0.435901214655793    0.794177956495541    0.297983556647776  0.0000
  O1     O1        0.215772217640303    0.168113893091501    0.184494704363580  0.0000
  O3     O3        0.868639891498886    0.162418529544646    0.820676778821515  0.0000
  O3     O3        0.789490791321961    0.837493061966613    0.831143201729272  0.0000
  O3     O3        0.153646693475417    0.819402377694065    0.275211644414145  0.0000
  O3     O3        0.329761544814170    0.439873110990216    0.691854670867122  0.0000
  O3     O3        0.665213702984011    0.548906839583634    0.349062853458249  0.0000
  O1     O1        0.262523021974315    0.088114844503092    0.701955316248501  0.0000
  O3     O3        0.767233660181729    0.253100784347139    0.308147343414463  0.0000
  O1     O1        0.729468028990005    0.892707131973711    0.303689362918548  0.0000
  O3     O3        0.190083374412039    0.745132322555168    0.624786130717708  0.0000
  O1     O1        0.011860146871777    0.026390514734645    0.470473830916942  0.0000
  O1     O1        0.924264152359391    0.067282582652689    0.184421412568018  0.0000
  O3     O3        0.005466923076956    0.912835212607134    0.734798570891702  0.0000
  O3     O3        0.054919551368619    0.938256030290411    0.997245730013064  0.0000
