data_c00092.vasp
_audit_creation_method             Generated by GULP
_audit_author_name                 Salvador R. G. Balestra
_symmetry_space_group_name_H-M     'P 1             '
_symmetry_Int_Tables_number        1

loop_
_symmetry_equiv_pos_site_id
_symmetry_equiv_pos_as_xyz
_cell_length_a                        9.1325
_cell_length_b                        7.8114
_cell_length_c                       10.1642
_cell_angle_alpha                   90.9253
_cell_angle_beta                   105.5382
_cell_angle_gamma                   88.4271

loop_
_atom_site_label
_atom_site_type_symbol
_atom_site_fract_x
_atom_site_fract_y
_atom_site_fract_z
_atom_site_charge
  Ge     Ge        0.313819999999964    0.296860000000038    0.309830000000034  0.0000
  Ge     Ge        0.670403645879993    0.247772244549791    0.713567594362334  0.0000
  Ge     Ge        0.304676456018248    0.303654309839716    0.625952494032355  0.0000
  Ge     Ge        0.708515627252827    0.632095403392078    0.405372616561698  0.0000
  Ge     Ge        0.353480313948761    0.708912545647858    0.630631343653790  0.0000
  Ge     Ge        0.911466698402534    0.947101091699329    0.398354497659381  0.0000
  Ge     Ge        0.118867473998073    0.980881675065301    0.187616545878497  0.0000
  Ge     Ge        0.906294153025165    0.948788258643105    0.879603133511664  0.0000
  Si     Si        0.708952663848013    0.646142649052518    0.717691090577560  0.0000
  Si     Si        0.353001979225230    0.692372252376507    0.316619799824273  0.0000
  Si     Si        0.672144661583034    0.236298644515736    0.403442294393428  0.0000
  Si     Si        0.123020733907395    0.998876518096258    0.694915815614651  0.0000
  O1     O1        0.245157561997283    0.303688690937863    0.450950212792955  0.0000
  O3     O3        0.732742545301361    0.227459515285298    0.567828822839860  0.0000
  O3     O3        0.765545806495269    0.631210641627284    0.581754146152510  0.0000
  O3     O3        0.295338693577400    0.706507240884360    0.453748130123294  0.0000
  O3     O3        0.327245616936187    0.501075315931442    0.254398362930241  0.0000
  O3     O3        0.691215412344417    0.458391642099541    0.771833829407413  0.0000
  O3     O3        0.493908254451252    0.201949243014240    0.361913765788331  0.0000
  O1     O1        0.481189569878299    0.206449948236235    0.680082621810028  0.0000
  O3     O3        0.545966428430088    0.745222592751878    0.683201722248998  0.0000
  O3     O3        0.530874655919854    0.730882312479904    0.354769571977292  0.0000
  O1     O1        0.202240506740771    0.174889991617634    0.183518864932534  0.0000
  O1     O1        0.776051995621728    0.112976914194030    0.834063455110779  0.0000
  O3     O3        0.829504459535784    0.751939409309820    0.830270897821308  0.0000
  O3     O3        0.258534542498070    0.821702531393858    0.203988181215381  0.0000
  O1     O1        0.312258912937294    0.512839405308628    0.683250420494662  0.0000
  O3     O3        0.700792898861462    0.422737418858240    0.349481885474301  0.0000
  O3     O3        0.172519460632931    0.192509967674612    0.682513794669483  0.0000
  O3     O3        0.765099606788098    0.096612372157459    0.340761996703117  0.0000
  O1     O1        0.834536445942127    0.748637155370939    0.350426793615193  0.0000
  O3     O3        0.265692085378274    0.873552375414048    0.695165976889039  0.0000
  O3     O3        0.975658890598362    0.949199117528881    0.575079889988961  0.0000
  O1     O1        0.060288371258088    0.984301025806977    0.335771898080579  0.0000
  O3     O3        0.072822230369074    0.981475681726190    0.833597557331813  0.0000
  O1     O1        0.964747744339049    0.946222136518469    0.055298160031776  0.0000
