data_c00025.vasp
_audit_creation_method             Generated by GULP
_audit_author_name                 Salvador R. G. Balestra
_symmetry_space_group_name_H-M     'P 1             '
_symmetry_Int_Tables_number        1

loop_
_symmetry_equiv_pos_site_id
_symmetry_equiv_pos_as_xyz
_cell_length_a                        9.0516
_cell_length_b                        7.7303
_cell_length_c                       10.3097
_cell_angle_alpha                   86.9566
_cell_angle_beta                   107.5064
_cell_angle_gamma                   92.3295

loop_
_atom_site_label
_atom_site_type_symbol
_atom_site_fract_x
_atom_site_fract_y
_atom_site_fract_z
_atom_site_charge
  Ge     Ge        0.313819999999964    0.296860000000038    0.309830000000034  0.0000
  Ge     Ge        0.690874372566043    0.340077604658256    0.715485774476761  0.0000
  Ge     Ge        0.644855540141037    0.748443111059633    0.710187545955142  0.0000
  Ge     Ge        0.320565764778789    0.259024535106808    0.624269254838341  0.0000
  Ge     Ge        0.686151470413573    0.374770523718483    0.399019395694131  0.0000
  Ge     Ge        0.627256784502500    0.777885783998567    0.390483251816383  0.0000
  Ge     Ge        0.278460022826381    0.666243683031049    0.625726646758827  0.0000
  Ge     Ge        0.872864510715243    0.065499467812766    0.340060104987571  0.0000
  Si     Si        0.266675615915134    0.693418568352507    0.314629980273653  0.0000
  Si     Si        0.080616538639611    0.967551573058553    0.647568438361958  0.0000
  Si     Si        0.084542305490009    0.009048239251591    0.151688447723814  0.0000
  Si     Si        0.888122294549453    0.025567435494265    0.849404517993667  0.0000
  O1     O1        0.249482365110941    0.254557778289878    0.449109877609077  0.0000
  O1     O1        0.750459959382056    0.375689338632207    0.573797628862303  0.0000
  O1     O1        0.699857767817591    0.778687323949676    0.565060132370874  0.0000
  O3     O3        0.219520597574283    0.647027838124179    0.450248600849857  0.0000
  O3     O3        0.280652451449507    0.512051399367799    0.250476010123251  0.0000
  O1     O1        0.670837427649804    0.537208306352964    0.774081833913848  0.0000
  O1     O1        0.508614632333325    0.266740366046970    0.352286110211189  0.0000
  O1     O1        0.515932970148000    0.226841067084899    0.669191916205510  0.0000
  O1     O1        0.449870303279839    0.782624539790454    0.673038830996601  0.0000
  O3     O3        0.429243927042338    0.799157849314005    0.352675889563770  0.0000
  O3     O3        0.219424788336299    0.154456238259280    0.186323144283253  0.0000
  O3     O3        0.824490631973382    0.217184760407649    0.837498162628742  0.0000
  O3     O3        0.748281412616710    0.886725944465538    0.833629475918516  0.0000
  O2     O2        0.140219091703411    0.818221979191459    0.213415839526693  0.0000
  O1     O1        0.295950578158949    0.456128651652810    0.685813770079931  0.0000
  O1     O1        0.665294844591198    0.583692322510232    0.335060011965428  0.0000
  O3     O3        0.223386381685836    0.103593920688877    0.695375528829863  0.0000
  O1     O1        0.822981989339962    0.274888567344991    0.348379413147749  0.0000
  O1     O1        0.705027554732102    0.942298768098095    0.314447686600760  0.0000
  O3     O3        0.143522749898195    0.773446448332765    0.677668310803331  0.0000
  O3     O3        0.007908111613671    0.989430167027655    0.485246114986324  0.0000
  O3     O3        0.943112217483283    0.061758458856953    0.203034480170014  0.0000
  O2     O2        0.952860182530815    0.998153956642901    0.721733134913160  0.0000
  O2     O2        0.024104666318974    0.994634355434736    0.988762788077692  0.0000
