data_c00001.vasp
_audit_creation_method             Generated by GULP
_audit_author_name                 Salvador R. G. Balestra
_symmetry_space_group_name_H-M     'P 1             '
_symmetry_Int_Tables_number        1

loop_
_symmetry_equiv_pos_site_id
_symmetry_equiv_pos_as_xyz
_cell_length_a                        8.9288
_cell_length_b                        7.7328
_cell_length_c                       10.3195
_cell_angle_alpha                   88.7221
_cell_angle_beta                   106.1913
_cell_angle_gamma                   92.7424

loop_
_atom_site_label
_atom_site_type_symbol
_atom_site_fract_x
_atom_site_fract_y
_atom_site_fract_z
_atom_site_charge
  Ge     Ge        0.313819999999964    0.296860000000038    0.309830000000034  0.0000
  Ge     Ge        0.687542837494026    0.374251120934826    0.714576508679747  0.0000
  Ge     Ge        0.631657523601657    0.778728087160421    0.704861046164447  0.0000
  Ge     Ge        0.262745549459926    0.703303147633216    0.297753736801387  0.0000
  Ge     Ge        0.313602132103862    0.285146339922929    0.624367811688880  0.0000
  Ge     Ge        0.686254094229709    0.385171700347148    0.400162925138492  0.0000
  Ge     Ge        0.635624783278428    0.791343135168913    0.392102170306110  0.0000
  Ge     Ge        0.257396658174390    0.690875380557695    0.609915091011672  0.0000
  Si     Si        0.879238366950897    0.081867705155612    0.365984674543627  0.0000
  Si     Si        0.072497042165896    0.996617192493701    0.666800791447081  0.0000
  Si     Si        0.076557395576760    0.014432785599363    0.162840994312397  0.0000
  Si     Si        0.868818769824619    0.061798554493264    0.864692017702910  0.0000
  O1     O1        0.248607749499062    0.276994962859286    0.451364059243154  0.0000
  O1     O1        0.749592829767103    0.403496691568188    0.572647809339924  0.0000
  O1     O1        0.699974782965742    0.800356535072161    0.565187851340590  0.0000
  O1     O1        0.195408039984376    0.676104845719933    0.437297129178293  0.0000
  O1     O1        0.285313491417488    0.503042098631520    0.242040448228481  0.0000
  O1     O1        0.665760431278244    0.574126777348425    0.773283755176820  0.0000
  O1     O1        0.511059770828144    0.268493770258578    0.358783834455600  0.0000
  O1     O1        0.511031124548582    0.260188959013465    0.672447836378177  0.0000
  O1     O1        0.434066322446865    0.803741887392579    0.654736970126123  0.0000
  O1     O1        0.438541453575130    0.819573972672017    0.344167089072733  0.0000
  O3     O3        0.222679893040593    0.150043644343944    0.185411839621663  0.0000
  O3     O3        0.823266640754229    0.258222854738593    0.832962896663005  0.0000
  O3     O3        0.716997650285583    0.934842176817690    0.822720336944632  0.0000
  O3     O3        0.133027772232488    0.820782405537051    0.174238886887470  0.0000
  O1     O1        0.276762346691730    0.485764934038949    0.676057560383014  0.0000
  O1     O1        0.665513046272689    0.590501732416405    0.335803065555107  0.0000
  O3     O3        0.225331064420640    0.123404371006399    0.698539863829865  0.0000
  O3     O3        0.819384320245113    0.275084837159163    0.342220150473061  0.0000
  O3     O3        0.733320516176680    0.946067168114676    0.320018723920426  0.0000
  O3     O3        0.119393362987154    0.800503169316148    0.660711488969479  0.0000
  O2     O2        0.955093438862369    0.057350375141968    0.526336695654604  0.0000
  O2     O2        0.005744479728745    0.051473643368572    0.287295653021087  0.0000
  O2     O2        0.990005455033610    0.004105930191402    0.785533819131210  0.0000
  O2     O2        0.947204775700398    0.044535161958175    0.023759772376423  0.0000
