data_c00093.vasp
_audit_creation_method             Generated by GULP
_audit_author_name                 Salvador R. G. Balestra
_symmetry_space_group_name_H-M     'P 1             '
_symmetry_Int_Tables_number        1

loop_
_symmetry_equiv_pos_site_id
_symmetry_equiv_pos_as_xyz
_cell_length_a                        9.1303
_cell_length_b                        7.7354
_cell_length_c                       10.3080
_cell_angle_alpha                   88.7177
_cell_angle_beta                   107.0080
_cell_angle_gamma                   91.5980

loop_
_atom_site_label
_atom_site_type_symbol
_atom_site_fract_x
_atom_site_fract_y
_atom_site_fract_z
_atom_site_charge
  Ge     Ge        0.313819999999964    0.296860000000038    0.309830000000034  0.0000
  Ge     Ge        0.688841397137749    0.360792149599412    0.708300623212704  0.0000
  Ge     Ge        0.328371152657923    0.268221696175466    0.627956712643332  0.0000
  Ge     Ge        0.630498130180665    0.764273219699918    0.392092209351567  0.0000
  Ge     Ge        0.274470783097426    0.673253290259775    0.611901108926482  0.0000
  Ge     Ge        0.082702585409076    0.981689240969984    0.679761817823648  0.0000
  Ge     Ge        0.066756766494889    0.006280007069906    0.185106547217862  0.0000
  Ge     Ge        0.869390761150764    0.036417317593538    0.870344166853140  0.0000
  Si     Si        0.627614235710219    0.758568500394513    0.700592007191914  0.0000
  Si     Si        0.274666043796448    0.692317561358069    0.299846130786834  0.0000
  Si     Si        0.672513892270191    0.368847629582373    0.396404270759949  0.0000
  Si     Si        0.865907916055345    0.061477513790302    0.386531254586523  0.0000
  O1     O1        0.260596358750644    0.257143848932037    0.454157975830527  0.0000
  O3     O3        0.733030720289584    0.391673323246286    0.557852683237450  0.0000
  O3     O3        0.684835221807456    0.778556024099117    0.566694620920317  0.0000
  O3     O3        0.231392444004062    0.654749980529716    0.438208502617464  0.0000
  O3     O3        0.286925812196117    0.505115527882026    0.241535447944316  0.0000
  O3     O3        0.663743019233032    0.565374382538786    0.762409456008781  0.0000
  O3     O3        0.509838808183271    0.267621184288458    0.355440629849762  0.0000
  O1     O1        0.522249337284284    0.241370922308215    0.680938630620652  0.0000
  O3     O3        0.446932379201714    0.789020773218741    0.663577102638490  0.0000
  O3     O3        0.436074309459503    0.799064148966778    0.331867008093831  0.0000
  O1     O1        0.208269262037764    0.159314264964918    0.189180943644844  0.0000
  O1     O1        0.828925089777612    0.248288513684786    0.821616445989317  0.0000
  O3     O3        0.713741843858139    0.899592713119791    0.808074103532318  0.0000
  O3     O3        0.145791259483489    0.803698955945808    0.196520281226984  0.0000
  O1     O1        0.291692041546137    0.469641858740566    0.678895323337047  0.0000
  O3     O3        0.661549821899023    0.561761606936285    0.335195523469485  0.0000
  O1     O1        0.239980801694271    0.114663363958708    0.701628601586085  0.0000
  O2     O2        0.789612405702764    0.250542452187020    0.346889206499111  0.0000
  O3     O3        0.736452847219232    0.913097783392277    0.329832437797787  0.0000
  O1     O1        0.131584110657835    0.776384683025283    0.650660847260403  0.0000
  O3     O3        0.927181292008928    0.050025418524790    0.549404818112503  0.0000
  O3     O3        0.005866604324326    0.038344228106913    0.327377925766925  0.0000
  O1     O1        0.025620894876957    0.975992020988634    0.823829088752892  0.0000
  O1     O1        0.915726218896785    0.023676938146024    0.044199249277770  0.0000
