data_c00050.vasp
_audit_creation_method             Generated by GULP
_audit_author_name                 Salvador R. G. Balestra
_symmetry_space_group_name_H-M     'P 1             '
_symmetry_Int_Tables_number        1

loop_
_symmetry_equiv_pos_site_id
_symmetry_equiv_pos_as_xyz
_cell_length_a                        9.2500
_cell_length_b                        7.7189
_cell_length_c                       10.0968
_cell_angle_alpha                   85.0996
_cell_angle_beta                   106.7047
_cell_angle_gamma                   90.7264

loop_
_atom_site_label
_atom_site_type_symbol
_atom_site_fract_x
_atom_site_fract_y
_atom_site_fract_z
_atom_site_charge
  Ge     Ge        0.313819999999964    0.296860000000038    0.309830000000034  0.0000
  Ge     Ge        0.681393013671539    0.286610603278936    0.717380085117132  0.0000
  Ge     Ge        0.639900540336201    0.708054813037396    0.724488813672481  0.0000
  Ge     Ge        0.320487746943932    0.226056177748580    0.630417205784727  0.0000
  Ge     Ge        0.638307781732550    0.752266881717222    0.394996123437731  0.0000
  Ge     Ge        0.300398921161632    0.629655503817144    0.638077029573594  0.0000
  Ge     Ge        0.092312391788012    0.001104981960701    0.174757924764187  0.0000
  Ge     Ge        0.900330445628300    0.965702000873079    0.858576016239841  0.0000
  Si     Si        0.301524577749488    0.682857440095437    0.322234866787191  0.0000
  Si     Si        0.674861796520388    0.343176081747882    0.403066189030447  0.0000
  Si     Si        0.859787577003730    0.051045778981155    0.336627823413663  0.0000
  Si     Si        0.082113051080174    0.939129268041542    0.631603209222153  0.0000
  O1     O1        0.255392253929505    0.231526974026893    0.452273419936067  0.0000
  O3     O3        0.738557223154680    0.310223717615466    0.567983699333974  0.0000
  O1     O1        0.673077396022365    0.775399059597871    0.567747020214320  0.0000
  O3     O3        0.343603428907027    0.599144431223616    0.482631198566715  0.0000
  O3     O3        0.269166186836078    0.510900591131771    0.239746351978950  0.0000
  O1     O1        0.661412106831580    0.487127520195246    0.766708785878198  0.0000
  O3     O3        0.506711378759581    0.268555906681889    0.353631528624856  0.0000
  O1     O1        0.511078798225782    0.180527326086363    0.685166240760013  0.0000
  O1     O1        0.455170904649357    0.741571667883099    0.722611663728114  0.0000
  O3     O3        0.448227139444014    0.787055751224761    0.306657438351369  0.0000
  O1     O1        0.219248992168932    0.164822638136000    0.185629289458705  0.0000
  O1     O1        0.821108692244279    0.169500136358901    0.838281591782033  0.0000
  O1     O1        0.758787399549627    0.817046402536505    0.850521140341461  0.0000
  O3     O3        0.163576755435539    0.816304934788552    0.284655712071157  0.0000
  O1     O1        0.285550811700293    0.416618635072254    0.695000523858404  0.0000
  O3     O3        0.680368969428690    0.545953881370639    0.359434399797683  0.0000
  O3     O3        0.222671027142723    0.060687834739241    0.693805898009080  0.0000
  O2     O2        0.780212539411022    0.236027341664602    0.335285580516383  0.0000
  O3     O3        0.739387460347924    0.897996091099491    0.321064395194325  0.0000
  O3     O3        0.138953746397748    0.743258961374858    0.625761670513126  0.0000
  O2     O2        0.998873858505046    0.015085075235857    0.474758713381348  0.0000
  O3     O3        0.927509774550540    0.063497655838515    0.207495553618852  0.0000
  O3     O3        0.966760380519291    0.925422005125092    0.720580774002070  0.0000
  O1     O1        0.043364988904487    0.940121927417101    0.008389421109853  0.0000
