data_c00098.vasp
_audit_creation_method             Generated by GULP
_audit_author_name                 Salvador R. G. Balestra
_symmetry_space_group_name_H-M     'P 1             '
_symmetry_Int_Tables_number        1

loop_
_symmetry_equiv_pos_site_id
_symmetry_equiv_pos_as_xyz
_cell_length_a                        9.2472
_cell_length_b                        7.6863
_cell_length_c                       10.1585
_cell_angle_alpha                   82.8069
_cell_angle_beta                   108.8487
_cell_angle_gamma                   91.6999

loop_
_atom_site_label
_atom_site_type_symbol
_atom_site_fract_x
_atom_site_fract_y
_atom_site_fract_z
_atom_site_charge
  Ge     Ge        0.313819999999964    0.296860000000038    0.309830000000034  0.0000
  Ge     Ge        0.658182875152810    0.690183824977238    0.734344345760365  0.0000
  Ge     Ge        0.330190891650431    0.225453366268466    0.633114349968685  0.0000
  Ge     Ge        0.678885576499701    0.369544250721893    0.399986833035990  0.0000
  Ge     Ge        0.619418363242347    0.778486121347002    0.395018737706800  0.0000
  Ge     Ge        0.308747924659704    0.621312149820874    0.658816505603042  0.0000
  Ge     Ge        0.865299845834572    0.068905826904867    0.341224375005067  0.0000
  Ge     Ge        0.079640605921718    0.009590723180970    0.163201214796196  0.0000
  Si     Si        0.690237713525607    0.289028352729517    0.717052449252726  0.0000
  Si     Si        0.281259794162853    0.687365858800875    0.330321364270451  0.0000
  Si     Si        0.096656868684157    0.931211297262926    0.646835925854954  0.0000
  Si     Si        0.904019355239585    0.963987487985462    0.849800336047464  0.0000
  O1     O1        0.257095668331679    0.230774467981643    0.453885760736218  0.0000
  O3     O3        0.739194467449722    0.347462170562692    0.581340735761872  0.0000
  O1     O1        0.675739396549389    0.765499777842916    0.574591500598568  0.0000
  O3     O3        0.321932713312444    0.603818553383934    0.492700972318560  0.0000
  O3     O3        0.269452515119499    0.518046389389880    0.249839832632015  0.0000
  O3     O3        0.684143374549420    0.464797479200209    0.784673618157969  0.0000
  O1     O1        0.505451854280452    0.268156973202061    0.342360551632841  0.0000
  O3     O3        0.525682911293906    0.196231589739990    0.674751010018073  0.0000
  O1     O1        0.476374163631135    0.720287594231304    0.740052650697967  0.0000
  O3     O3        0.423478155444569    0.810107169459480    0.322045384296147  0.0000
  O1     O1        0.212359933512055    0.170923335789399    0.183788227958897  0.0000
  O2     O2        0.812699381716006    0.148401422496760    0.822525289405462  0.0000
  O3     O3        0.789613568752081    0.804198648552600    0.854508878822665  0.0000
  O3     O3        0.135064247202128    0.812145863210000    0.272947600454090  0.0000
  O1     O1        0.294814895078356    0.401573960974765    0.707612689313877  0.0000
  O1     O1        0.664508003833775    0.588414124341408    0.343360319990768  0.0000
  O3     O3        0.245077605780374    0.048457182112486    0.701601589709112  0.0000
  O1     O1        0.818248261030287    0.279311592924288    0.353196785644595  0.0000
  O1     O1        0.702445313750972    0.951177308775237    0.327542067599282  0.0000
  O3     O3        0.153609254985368    0.729772266278124    0.668347055221585  0.0000
  O3     O3        0.016633285737555    0.983867688932019    0.482515466364674  0.0000
  O1     O1        0.920238829863722    0.073421481725062    0.195788829710875  0.0000
  O2     O2        0.973416312713329    0.948944585538322    0.724730754217076  0.0000
  O3     O3        0.038442606982963    0.957264195468447    0.994221808030702  0.0000
