data_c00090.vasp
_audit_creation_method             Generated by GULP
_audit_author_name                 Salvador R. G. Balestra
_symmetry_space_group_name_H-M     'P 1             '
_symmetry_Int_Tables_number        1

loop_
_symmetry_equiv_pos_site_id
_symmetry_equiv_pos_as_xyz
_cell_length_a                        9.4725
_cell_length_b                        7.7814
_cell_length_c                       10.3391
_cell_angle_alpha                   85.5711
_cell_angle_beta                   112.2750
_cell_angle_gamma                   89.2423

loop_
_atom_site_label
_atom_site_type_symbol
_atom_site_fract_x
_atom_site_fract_y
_atom_site_fract_z
_atom_site_charge
  Ge     Ge        0.313819999999964    0.296860000000038    0.309830000000034  0.0000
  Ge     Ge        0.743378484632241    0.257868717141561    0.704984957192437  0.0000
  Ge     Ge        0.379060652608692    0.230738027565627    0.637526162820971  0.0000
  Ge     Ge        0.663685590518407    0.710841558123422    0.385354589982324  0.0000
  Ge     Ge        0.376031476138567    0.627408001426899    0.639481101438464  0.0000
  Ge     Ge        0.872261872200299    0.017807698229258    0.328314385733756  0.0000
  Ge     Ge        0.147124141563274    0.944675871920228    0.642635828981997  0.0000
  Ge     Ge        0.099669698183322    0.994069034379326    0.168485464440552  0.0000
  Si     Si        0.714243117056691    0.673997327205826    0.712434953583436  0.0000
  Si     Si        0.325585912519341    0.678644414954615    0.318582948915390  0.0000
  Si     Si        0.678473733269894    0.302940070367257    0.386696166519036  0.0000
  Si     Si        0.962236439145508    0.931776391067983    0.852024159786049  0.0000
  O1     O1        0.278842621756158    0.237014047365211    0.457743333548760  0.0000
  O3     O3        0.775993330164725    0.252089507049456    0.551705009982379  0.0000
  O3     O3        0.718147772491279    0.737281494849056    0.561562345878798  0.0000
  O3     O3        0.391073749472955    0.589016734744735    0.479852672170889  0.0000
  O3     O3        0.267062531089133    0.510325620207476    0.236255774472783  0.0000
  O3     O3        0.752129462165204    0.469159556771294    0.748094254629005  0.0000
  O3     O3        0.506035992633937    0.252746261512480    0.355608733575180  0.0000
  O1     O1        0.569908707857060    0.179414035911975    0.684599157420793  0.0000
  O3     O3        0.552099249960228    0.714739353025712    0.723211896019139  0.0000
  O3     O3        0.470027064755353    0.763153746362808    0.295579156582735  0.0000
  O1     O1        0.203935967556628    0.173159676566593    0.182195867363808  0.0000
  O3     O3        0.885800442141237    0.124786674447678    0.828281674958052  0.0000
  O2     O2        0.835555336525728    0.786925020469735    0.823137248121850  0.0000
  O3     O3        0.200517888771224    0.827697024690071    0.296896836556360  0.0000
  O1     O1        0.362892480451705    0.422399900567366    0.704237188285896  0.0000
  O3     O3        0.691346086614564    0.503154822820601    0.350234966740623  0.0000
  O1     O1        0.296283278729493    0.075402590832727    0.708820963278132  0.0000
  O3     O3        0.745347167523825    0.192097186422295    0.297926553197337  0.0000
  O1     O1        0.776867028891531    0.831620590931788    0.324860859859616  0.0000
  O1     O1        0.221647547751878    0.746733509324610    0.626850881698548  0.0000
  O1     O1        0.025726069712451    0.030190957480655    0.481546289989542  0.0000
  O1     O1        0.933974928288716    0.032252548530248    0.191914701715866  0.0000
  O3     O3        0.056328124765572    0.904406617378489    0.755903775929017  0.0000
  O3     O3        0.073648888896614    0.906655755023319    0.013115643177787  0.0000
