data_c00013.vasp
_audit_creation_method             Generated by GULP
_audit_author_name                 Salvador R. G. Balestra
_symmetry_space_group_name_H-M     'P 1             '
_symmetry_Int_Tables_number        1

loop_
_symmetry_equiv_pos_site_id
_symmetry_equiv_pos_as_xyz
_cell_length_a                        9.1696
_cell_length_b                        7.7193
_cell_length_c                       10.1623
_cell_angle_alpha                   86.8354
_cell_angle_beta                   105.0800
_cell_angle_gamma                   90.9454

loop_
_atom_site_label
_atom_site_type_symbol
_atom_site_fract_x
_atom_site_fract_y
_atom_site_fract_z
_atom_site_charge
  Ge     Ge        0.313819999999964    0.296860000000038    0.309830000000034  0.0000
  Ge     Ge        0.657778467922052    0.339473475431389    0.716443583257558  0.0000
  Ge     Ge        0.628933713221808    0.738070577676051    0.719729337973811  0.0000
  Ge     Ge        0.268644324699676    0.709264027956769    0.312452553942631  0.0000
  Ge     Ge        0.315165785751812    0.257655739323291    0.637655363428308  0.0000
  Ge     Ge        0.633745001595502    0.769949977453344    0.403019653159059  0.0000
  Ge     Ge        0.055414070167378    0.032130844786054    0.183640157323938  0.0000
  Ge     Ge        0.864174585698443    0.021654071582380    0.867057122167361  0.0000
  Si     Si        0.650385184521338    0.376692202435887    0.399772041625169  0.0000
  Si     Si        0.274600310061614    0.667902467607963    0.625650962283198  0.0000
  Si     Si        0.865306355067917    0.065836774428597    0.404278853802609  0.0000
  Si     Si        0.085097375039368    0.961776568146416    0.691105172429873  0.0000
  O1     O1        0.281479587868820    0.235733888635874    0.465952892326197  0.0000
  O3     O3        0.615557815555675    0.414638071500572    0.544863149111005  0.0000
  O1     O1        0.690909287766947    0.786762724014684    0.576210858962495  0.0000
  O3     O3        0.215559474076543    0.678960712697682    0.463376469828136  0.0000
  O1     O1        0.273986817919238    0.508358081164326    0.253948685348922  0.0000
  O1     O1        0.673678956397920    0.533323277086045    0.792767910398267  0.0000
  O3     O3        0.504913158229726    0.276522203477129    0.315792575302007  0.0000
  O1     O1        0.500522121957640    0.218328395995887    0.722496203155192  0.0000
  O3     O3        0.435362674462727    0.763575704970367    0.670967409965822  0.0000
  O1     O1        0.443063857623601    0.808771093317881    0.341639864038558  0.0000
  O1     O1        0.208159366470112    0.167174806613623    0.191388119579705  0.0000
  O1     O1        0.814248744298556    0.217565275251979    0.777652329429742  0.0000
  O1     O1        0.715735367926681    0.880797485716440    0.838925870363398  0.0000
  O1     O1        0.126824559360258    0.826225183407703    0.203316198702124  0.0000
  O3     O3        0.285060641574094    0.468899107619161    0.678201673807761  0.0000
  O3     O3        0.672412146091952    0.571105778830273    0.343359013598032  0.0000
  O3     O3        0.204848334795029    0.116976058076391    0.706658665195003  0.0000
  O2     O2        0.795177190866802    0.255240609013263    0.415322504557028  0.0000
  O3     O3        0.737698524602723    0.928534745503520    0.338643130085899  0.0000
  O2     O2        0.158307110643231    0.775240568808978    0.684671440319604  0.0000
  O2     O2        0.946476242800750    0.999851669785419    0.558598472696909  0.0000
  O3     O3        0.985094032452499    0.092063627240829    0.317557916323866  0.0000
  O3     O3        0.019907364980672    0.944451190917537    0.822486565074759  0.0000
  O1     O1        0.915726102006506    0.059687972182024    0.037495129621739  0.0000
