data_c00027.vasp
_audit_creation_method             Generated by GULP
_audit_author_name                 Salvador R. G. Balestra
_symmetry_space_group_name_H-M     'P 1             '
_symmetry_Int_Tables_number        1

loop_
_symmetry_equiv_pos_site_id
_symmetry_equiv_pos_as_xyz
_cell_length_a                        9.0064
_cell_length_b                        7.7923
_cell_length_c                       10.2393
_cell_angle_alpha                   90.1370
_cell_angle_beta                   107.1808
_cell_angle_gamma                   86.7105

loop_
_atom_site_label
_atom_site_type_symbol
_atom_site_fract_x
_atom_site_fract_y
_atom_site_fract_z
_atom_site_charge
  Ge     Ge        0.313819999999964    0.296860000000038    0.309830000000034  0.0000
  Ge     Ge        0.689762043395918    0.212814630635825    0.725798182642351  0.0000
  Ge     Ge        0.741843926914977    0.616271224939126    0.737110949018468  0.0000
  Ge     Ge        0.319992696140839    0.289396797283178    0.632433526816881  0.0000
  Ge     Ge        0.678852085096785    0.208279770760672    0.402538673515002  0.0000
  Ge     Ge        0.734468033314604    0.608533093289508    0.417897944542708  0.0000
  Ge     Ge        0.371123741174683    0.688235784559851    0.646170884762054  0.0000
  Ge     Ge        0.129252527137069    0.978817169469587    0.166088709650879  0.0000
  Si     Si        0.372729398171085    0.686200614899811    0.331899128804297  0.0000
  Si     Si        0.913110378406721    0.910212714354586    0.353385702490035  0.0000
  Si     Si        0.125677045883840    0.984334594692646    0.651679508376106  0.0000
  Si     Si        0.935789348693462    0.921473822600158    0.857936119426046  0.0000
  O1     O1        0.318134871671342    0.232008360973338    0.470795390869473  0.0000
  O1     O1        0.667323846553956    0.151599620696943    0.560526006616311  0.0000
  O1     O1        0.747589497911059    0.679052415161936    0.578440775613949  0.0000
  O3     O3        0.390806220446798    0.735869055199286    0.487962473948701  0.0000
  O3     O3        0.272779846684829    0.518038737925551    0.293293976124423  0.0000
  O1     O1        0.785570346535270    0.399948216820737    0.759364516953657  0.0000
  O1     O1        0.495494080216376    0.248300379561182    0.293027808189618  0.0000
  O1     O1        0.504959345421752    0.248758304662967    0.740306882643228  0.0000
  O1     O1        0.557689652301260    0.658203362685047    0.751878711045009  0.0000
  O3     O3        0.542676121728732    0.639937459503067    0.316685828172926  0.0000
  O1     O1        0.174303039417344    0.188679082839253    0.194137333335355  0.0000
  O3     O3        0.788137474978211    0.054742473920654    0.842252779598363  0.0000
  O3     O3        0.878932756636579    0.730312955825521    0.854635126057109  0.0000
  O3     O3        0.294493268557120    0.848228664071419    0.236479017460758  0.0000
  O1     O1        0.272722331638077    0.505083459692812    0.639266099695591  0.0000
  O1     O1        0.780608317131250    0.391898563241032    0.418116085345600  0.0000
  O3     O3        0.180523655169677    0.176190186265888    0.675407164162311  0.0000
  O3     O3        0.765418286082203    0.041017807574308    0.336443140472042  0.0000
  O3     O3        0.862364387183814    0.716989625964790    0.356727667853585  0.0000
  O3     O3        0.275938870603182    0.854261462665984    0.706198413849802  0.0000
  O2     O2        0.052346486379735    0.949439756495317    0.489935870359166  0.0000
  O3     O3        0.976722433876519    0.928657703033960    0.224771043178436  0.0000
  O2     O2        0.994670683872251    0.960532552745664    0.725821543965425  0.0000
  O3     O3        0.074866757735422    0.948319284368675    0.992061409859063  0.0000
