data_c00010.vasp
_audit_creation_method             Generated by GULP
_audit_author_name                 Salvador R. G. Balestra
_symmetry_space_group_name_H-M     'P 1             '
_symmetry_Int_Tables_number        1

loop_
_symmetry_equiv_pos_site_id
_symmetry_equiv_pos_as_xyz
_cell_length_a                        9.0617
_cell_length_b                        7.8038
_cell_length_c                       10.2071
_cell_angle_alpha                   91.2277
_cell_angle_beta                   107.1543
_cell_angle_gamma                   87.2041

loop_
_atom_site_label
_atom_site_type_symbol
_atom_site_fract_x
_atom_site_fract_y
_atom_site_fract_z
_atom_site_charge
  Ge     Ge        0.313819999999964    0.296860000000038    0.309830000000034  0.0000
  Ge     Ge        0.700429125822836    0.223036771549276    0.712299186582704  0.0000
  Ge     Ge        0.746390887072584    0.626086361150935    0.726287220796391  0.0000
  Ge     Ge        0.366593121944897    0.695644141759671    0.323731626790566  0.0000
  Ge     Ge        0.331192596550454    0.301752398451377    0.629329326886672  0.0000
  Ge     Ge        0.738049475556026    0.619069229580941    0.407815567406292  0.0000
  Ge     Ge        0.915973206015662    0.935206880808359    0.340970292637915  0.0000
  Ge     Ge        0.140801389339442    0.989241026751771    0.651860626961711  0.0000
  Si     Si        0.682543721754102    0.223822844720348    0.398233120821364  0.0000
  Si     Si        0.382177676323529    0.695091988982156    0.638699766949894  0.0000
  Si     Si        0.127591293742128    0.989393660355485    0.152300650563288  0.0000
  Si     Si        0.936994356412892    0.933020826179105    0.852961071484467  0.0000
  O1     O1        0.254268888868953    0.305236037524469    0.454032901222896  0.0000
  O3     O3        0.755917772776447    0.211863497684228    0.562889150127533  0.0000
  O1     O1        0.808837047705024    0.619184824446738    0.583238377464683  0.0000
  O3     O3        0.313712571111990    0.696016583121641    0.473590513629399  0.0000
  O1     O1        0.319422777265573    0.498392005123538    0.248920663498674  0.0000
  O1     O1        0.739458432258809    0.424726431859154    0.782919536891199  0.0000
  O3     O3        0.499609743549996    0.204326519265586    0.359673782215418  0.0000
  O1     O1        0.507966085584409    0.191706377102000    0.671583502347100  0.0000
  O3     O3        0.563411180804431    0.726929380218269    0.677948282938730  0.0000
  O1     O1        0.559315817586787    0.723273196399501    0.357558296054260  0.0000
  O3     O3        0.184486171835331    0.180714180444689    0.186117826258552  0.0000
  O3     O3        0.800727125536993    0.077755732503359    0.834360264575007  0.0000
  O3     O3        0.868530354629297    0.747742217267110    0.852445874595671  0.0000
  O3     O3        0.270972916103774    0.861169224919483    0.221553751836012  0.0000
  O3     O3        0.358075198612003    0.508155704080378    0.692749637976437  0.0000
  O3     O3        0.718069724185840    0.408822865489853    0.349524596789617  0.0000
  O1     O1        0.212528368294318    0.189143986626923    0.695651679946416  0.0000
  O3     O3        0.757241532171054    0.073638185206039    0.326828659319228  0.0000
  O1     O1        0.862287445933107    0.727733142205400    0.346103158138384  0.0000
  O3     O3        0.292639119729072    0.836974210786195    0.704097182939785  0.0000
  O1     O1        0.069458494071840    0.984046783402413    0.476555207630100  0.0000
  O3     O3        0.977066061629008    0.952744401101846    0.196715176992600  0.0000
  O3     O3        0.995147171153582    0.947203926208594    0.718954975933130  0.0000
  O2     O2        0.079709448214130    0.963207571936869    0.987307752431117  0.0000
