data_c00015.vasp
_audit_creation_method             Generated by GULP
_audit_author_name                 Salvador R. G. Balestra
_symmetry_space_group_name_H-M     'P 1             '
_symmetry_Int_Tables_number        1

loop_
_symmetry_equiv_pos_site_id
_symmetry_equiv_pos_as_xyz
_cell_length_a                        9.0689
_cell_length_b                        7.7910
_cell_length_c                       10.3030
_cell_angle_alpha                   89.0030
_cell_angle_beta                   106.6515
_cell_angle_gamma                   92.7335

loop_
_atom_site_label
_atom_site_type_symbol
_atom_site_fract_x
_atom_site_fract_y
_atom_site_fract_z
_atom_site_charge
  Ge     Ge        0.313819999999964    0.296860000000038    0.309830000000034  0.0000
  Ge     Ge        0.678615462836592    0.371808117034834    0.710583669443264  0.0000
  Ge     Ge        0.633130478730895    0.771973339128784    0.696078407206746  0.0000
  Ge     Ge        0.258992660495448    0.703516312057067    0.294101274862700  0.0000
  Ge     Ge        0.312170547232030    0.295455277419087    0.624904669558256  0.0000
  Ge     Ge        0.265126133485869    0.700171258475396    0.609841512606931  0.0000
  Ge     Ge        0.852690721801301    0.072016295889275    0.340221317265496  0.0000
  Ge     Ge        0.063880711842097    0.012346879237178    0.138026682093588  0.0000
  Si     Si        0.666863207932816    0.378086307228222    0.397208137820705  0.0000
  Si     Si        0.617551307504947    0.769984083795410    0.382129719326277  0.0000
  Si     Si        0.074338991110735    0.003917154414445    0.636394663461187  0.0000
  Si     Si        0.871028958230015    0.061167834418295    0.828647697102014  0.0000
  O1     O1        0.318412485752862    0.227182614604425    0.469480028416147  0.0000
  O3     O3        0.668926568052606    0.314730256218523    0.546711017719478  0.0000
  O3     O3        0.615230941445409    0.830604642559298    0.529532188817873  0.0000
  O1     O1        0.254387307056417    0.772027448205894    0.449599658666674  0.0000
  O1     O1        0.220421830215432    0.486527608188461    0.278731020539593  0.0000
  O1     O1        0.728700434122814    0.584883541152496    0.737756872362707  0.0000
  O3     O3        0.498818056294157    0.334483192108313    0.297043793533776  0.0000
  O1     O1        0.497163875822889    0.329302866722720    0.727108169793990  0.0000
  O1     O1        0.450681091924231    0.735105527953793    0.710386902890063  0.0000
  O3     O3        0.445856367439833    0.747899129497451    0.283873745761787  0.0000
  O1     O1        0.225896923342352    0.143712639212085    0.194757821292727  0.0000
  O3     O3        0.816718602168863    0.254487630331214    0.822664815548750  0.0000
  O3     O3        0.720925580840689    0.933872712841546    0.807037829242986  0.0000
  O1     O1        0.120237455730216    0.805777096827508    0.174443066884579  0.0000
  O1     O1        0.218497209511917    0.484979736615058    0.608703109393428  0.0000
  O2     O2        0.699629786615117    0.585401801142767    0.399646004512652  0.0000
  O3     O3        0.214616829442930    0.141235841127807    0.695502492268201  0.0000
  O3     O3        0.791182986980864    0.277572000674190    0.349261537705296  0.0000
  O3     O3        0.711328840599561    0.910981943704787    0.319738598193354  0.0000
  O3     O3        0.135910459631148    0.814027195273404    0.666007605037174  0.0000
  O3     O3        0.010675500293159    0.038784538400743    0.475687142057319  0.0000
  O1     O1        0.917709956546716    0.070463117914534    0.199830475014927  0.0000
  O2     O2        0.933252538217263    0.022087966928228    0.699441019264873  0.0000
  O3     O3        0.002716624495069    0.027611911964014    0.963242420596870  0.0000
