data_c00029.vasp
_audit_creation_method             Generated by GULP
_audit_author_name                 Salvador R. G. Balestra
_symmetry_space_group_name_H-M     'P 1             '
_symmetry_Int_Tables_number        1

loop_
_symmetry_equiv_pos_site_id
_symmetry_equiv_pos_as_xyz
_cell_length_a                        9.2817
_cell_length_b                        7.7098
_cell_length_c                       10.3893
_cell_angle_alpha                   84.8067
_cell_angle_beta                   110.1780
_cell_angle_gamma                   91.5861

loop_
_atom_site_label
_atom_site_type_symbol
_atom_site_fract_x
_atom_site_fract_y
_atom_site_fract_z
_atom_site_charge
  Ge     Ge        0.313819999999964    0.296860000000038    0.309830000000034  0.0000
  Ge     Ge        0.727657987728677    0.310419825467839    0.705754255869479  0.0000
  Ge     Ge        0.673719498313599    0.724527996575409    0.710123202521775  0.0000
  Ge     Ge        0.358695341015164    0.247356687365190    0.631508004841896  0.0000
  Ge     Ge        0.684232701862077    0.370445425043595    0.381731107237228  0.0000
  Ge     Ge        0.629079234380792    0.781553152423995    0.377470206998370  0.0000
  Ge     Ge        0.869637696945007    0.070587348642779    0.328033812561782  0.0000
  Ge     Ge        0.120529105662204    0.949838307769025    0.647280008671849  0.0000
  Si     Si        0.288337751071792    0.690199960753878    0.316007362371627  0.0000
  Si     Si        0.330328323983935    0.642375612245857    0.632220921882698  0.0000
  Si     Si        0.087553571142143    0.005200076088170    0.165390449270576  0.0000
  Si     Si        0.929895002046188    0.982745150792772    0.852438067542409  0.0000
  O1     O1        0.271706604096934    0.237461596105272    0.456049995527820  0.0000
  O1     O1        0.768795074259395    0.337762671530762    0.557550633225994  0.0000
  O1     O1        0.692627423293775    0.786965491786559    0.553489609751972  0.0000
  O2     O2        0.333271350106994    0.617562807665601    0.477577625228916  0.0000
  O3     O3        0.260894926381416    0.512671097503533    0.243023806899882  0.0000
  O1     O1        0.723402936043742    0.510546970517249    0.763294061971228  0.0000
  O1     O1        0.505263140105389    0.274832004429108    0.341317921322058  0.0000
  O1     O1        0.551646645381673    0.210673325718720    0.675125706179793  0.0000
  O3     O3        0.485001482742599    0.746825488802958    0.703826133023022  0.0000
  O3     O3        0.431315696432650    0.802515489601207    0.304505760287516  0.0000
  O3     O3        0.211472868522835    0.157524590783217    0.189773543368809  0.0000
  O3     O3        0.875593935361671    0.182174750986074    0.818484477581600  0.0000
  O3     O3        0.781366583644881    0.860945036477302    0.828763881893903  0.0000
  O2     O2        0.146535569743947    0.825739212206267    0.264717107270900  0.0000
  O3     O3        0.333523570819202    0.443620336260778    0.692760357438578  0.0000
  O1     O1        0.671613208891784    0.586630175992309    0.331917392623151  0.0000
  O1     O1        0.269285475343573    0.090806521737531    0.705106105869986  0.0000
  O1     O1        0.801861625605794    0.278694887922205    0.312308116530574  0.0000
  O1     O1        0.709823333512140    0.942941771393695    0.304587213278224  0.0000
  O3     O3        0.185724121513365    0.743476595798748    0.635421150835842  0.0000
  O1     O1        0.002776336400266    0.018720881269728    0.486015087865452  0.0000
  O3     O3        0.939692792431327    0.064026593390969    0.195372503479540  0.0000
  O3     O3        0.018605530441316    0.919117671962063    0.757159860099038  0.0000
  O2     O2        0.043855251676494    0.956574091928235    0.009460505310319  0.0000
