data_c00042.vasp
_audit_creation_method             Generated by GULP
_audit_author_name                 Salvador R. G. Balestra
_symmetry_space_group_name_H-M     'P 1             '
_symmetry_Int_Tables_number        1

loop_
_symmetry_equiv_pos_site_id
_symmetry_equiv_pos_as_xyz
_cell_length_a                        9.3676
_cell_length_b                        7.7631
_cell_length_c                       10.3193
_cell_angle_alpha                   84.9679
_cell_angle_beta                   110.4673
_cell_angle_gamma                   90.7575

loop_
_atom_site_label
_atom_site_type_symbol
_atom_site_fract_x
_atom_site_fract_y
_atom_site_fract_z
_atom_site_charge
  Ge     Ge        0.313819999999964    0.296860000000038    0.309830000000034  0.0000
  Ge     Ge        0.735395869121637    0.276105091053301    0.711631668949807  0.0000
  Ge     Ge        0.684911142840922    0.697601090462001    0.711146031852678  0.0000
  Ge     Ge        0.372453749465427    0.232378671779659    0.646565738336623  0.0000
  Ge     Ge        0.680742603997049    0.331371362815331    0.384632316374079  0.0000
  Ge     Ge        0.873808998333947    0.033747917322602    0.336508714851780  0.0000
  Ge     Ge        0.136478963423079    0.936024044446071    0.648135488183675  0.0000
  Ge     Ge        0.949860988886301    0.950985099078142    0.863528302109530  0.0000
  Si     Si        0.321606565620831    0.679147169664728    0.328887558023360  0.0000
  Si     Si        0.658943958109636    0.737396174390424    0.396994298070692  0.0000
  Si     Si        0.347617856375826    0.623881779124566    0.638548683606367  0.0000
  Si     Si        0.104391117184002    0.990420827025869    0.181495031480867  0.0000
  O1     O1        0.314310446090395    0.216789439600225    0.469751012308094  0.0000
  O1     O1        0.730074421013026    0.232427241767403    0.549798993532679  0.0000
  O3     O3        0.684636095778614    0.790608602173331    0.550795201580611  0.0000
  O2     O2        0.378997447351056    0.603788088515322    0.492716660350463  0.0000
  O3     O3        0.247471008101270    0.512062306417317    0.254849500632552  0.0000
  O1     O1        0.755941191295844    0.490994936778766    0.736665619113302  0.0000
  O1     O1        0.491092969437666    0.300072370981147    0.298611034105450  0.0000
  O1     O1        0.565082510395462    0.206718521419046    0.724360736097147  0.0000
  O3     O3        0.507051716447973    0.700408861187710    0.730683294217547  0.0000
  O2     O2        0.477242472440850    0.739032514043460    0.303977821048873  0.0000
  O3     O3        0.190987418879052    0.170285128279454    0.192051764536689  0.0000
  O1     O1        0.889578226460373    0.163045916891139    0.827737198845564  0.0000
  O1     O1        0.792673195706993    0.823549309621674    0.834445704322099  0.0000
  O2     O2        0.209425834969974    0.843830522764680    0.297945491787639  0.0000
  O3     O3        0.321027358031114    0.429688154803473    0.688466779826124  0.0000
  O3     O3        0.726101680297673    0.547042976534932    0.401789194682163  0.0000
  O1     O1        0.281835329636290    0.075107189822929    0.713482725705914  0.0000
  O1     O1        0.783401172642597    0.232197757433964    0.303408986620084  0.0000
  O3     O3        0.741405639560683    0.873405407458756    0.324356922468007  0.0000
  O3     O3        0.203667027981555    0.740771325187351    0.618792280860402  0.0000
  O1     O1        0.015801544887815    0.031880195314014    0.494141177796709  0.0000
  O3     O3        0.946907771959012    0.011746992307941    0.206689300839829  0.0000
  O1     O1        0.045548425404336    0.883448440787364    0.762163537310572  0.0000
  O3     O3        0.073650897336177    0.922031181404918    0.033338043545207  0.0000
