data_c00065.vasp
_audit_creation_method             Generated by GULP
_audit_author_name                 Salvador R. G. Balestra
_symmetry_space_group_name_H-M     'P 1             '
_symmetry_Int_Tables_number        1

loop_
_symmetry_equiv_pos_site_id
_symmetry_equiv_pos_as_xyz
_cell_length_a                        9.0407
_cell_length_b                        7.7883
_cell_length_c                       10.2338
_cell_angle_alpha                   88.2007
_cell_angle_beta                   104.4501
_cell_angle_gamma                   91.6624

loop_
_atom_site_label
_atom_site_type_symbol
_atom_site_fract_x
_atom_site_fract_y
_atom_site_fract_z
_atom_site_charge
  Ge     Ge        0.313819999999964    0.296860000000038    0.309830000000034  0.0000
  Ge     Ge        0.653058356423077    0.334426958099217    0.716916500245308  0.0000
  Ge     Ge        0.620411521520668    0.738644358609057    0.712257734819975  0.0000
  Ge     Ge        0.677796237141171    0.357057007748506    0.402635582732950  0.0000
  Ge     Ge        0.628974050861362    0.761835385885832    0.396206599168266  0.0000
  Ge     Ge        0.256250578573704    0.674753884891344    0.613685820755261  0.0000
  Ge     Ge        0.080512026351413    0.002162173807394    0.147484059324705  0.0000
  Ge     Ge        0.864785583192806    0.024885780481177    0.843091989253274  0.0000
  Si     Si        0.271280063527331    0.693648515845332    0.308558524177654  0.0000
  Si     Si        0.294703134803915    0.274894397056612    0.615269153964809  0.0000
  Si     Si        0.858548977631746    0.050827822357147    0.335945960006556  0.0000
  Si     Si        0.058017521506454    0.984095600478472    0.626136765755839  0.0000
  O3     O3        0.246259505193050    0.272693428360718    0.453123107143123  0.0000
  O1     O1        0.721420908754556    0.360315205382391    0.575224666169167  0.0000
  O1     O1        0.686732131981061    0.763554565365415    0.568659488586494  0.0000
  O3     O3        0.205689670952052    0.668251611996026    0.439838388074493  0.0000
  O3     O3        0.294048064478583    0.509131196355473    0.252203881180352  0.0000
  O1     O1        0.637769865497531    0.531928287131221    0.776891250720313  0.0000
  O1     O1        0.503706226392550    0.254570118584300    0.345768419117148  0.0000
  O3     O3        0.472986479184184    0.234916441844130    0.667095327443691  0.0000
  O1     O1        0.428368732471377    0.777666998598462    0.670391807458896  0.0000
  O3     O3        0.433788724971702    0.793606024576980    0.351162694075100  0.0000
  O1     O1        0.213448834794592    0.164062668222885    0.188829074744433  0.0000
  O1     O1        0.773378884663402    0.215648759330032    0.838543316958352  0.0000
  O1     O1        0.726065804510211    0.867640467525125    0.834038888773303  0.0000
  O3     O3        0.154415046794215    0.802813957134080    0.196098164114408  0.0000
  O3     O3        0.263839472801297    0.461114443158418    0.668162467843053  0.0000
  O1     O1        0.671064144191593    0.566063337436424    0.342985217567914  0.0000
  O2     O2        0.193888054091008    0.127847034013797    0.669889944827118  0.0000
  O3     O3        0.815698738139723    0.246140491911973    0.351983405009615  0.0000
  O3     O3        0.710028237869289    0.928528226846265    0.322545282499304  0.0000
  O3     O3        0.124696477946364    0.794672947045240    0.666671919541908  0.0000
  O2     O2        0.993117672416607    0.987414139026854    0.463281783290571  0.0000
  O3     O3        0.918982571632753    0.039604614079352    0.202833583100196  0.0000
  O3     O3        0.923645062183317    0.020643462872870    0.693557153458154  0.0000
  O1     O1        0.018973379133720    0.000586158779707    0.974671946714678  0.0000
