data_c00035.vasp
_audit_creation_method             Generated by GULP
_audit_author_name                 Salvador R. G. Balestra
_symmetry_space_group_name_H-M     'P 1             '
_symmetry_Int_Tables_number        1

loop_
_symmetry_equiv_pos_site_id
_symmetry_equiv_pos_as_xyz
_cell_length_a                        9.1062
_cell_length_b                        7.7975
_cell_length_c                       10.3034
_cell_angle_alpha                   87.1470
_cell_angle_beta                   108.1923
_cell_angle_gamma                   92.4627

loop_
_atom_site_label
_atom_site_type_symbol
_atom_site_fract_x
_atom_site_fract_y
_atom_site_fract_z
_atom_site_charge
  Ge     Ge        0.313819999999964    0.296860000000038    0.309830000000034  0.0000
  Ge     Ge        0.715043160762260    0.343556173837568    0.710346856673230  0.0000
  Ge     Ge        0.655053457411514    0.747373973562843    0.702317010854688  0.0000
  Ge     Ge        0.343295486056632    0.266699984752596    0.630207721415052  0.0000
  Ge     Ge        0.687328233275706    0.370223164467931    0.390115567639825  0.0000
  Ge     Ge        0.287614157903473    0.670991741306482    0.615221165586208  0.0000
  Ge     Ge        0.875170599515811    0.056911953340788    0.369732290432757  0.0000
  Ge     Ge        0.100681067741446    0.977771000037199    0.680019598939218  0.0000
  Si     Si        0.282557774939040    0.689801268218789    0.306237962483194  0.0000
  Si     Si        0.641907008290533    0.761079464497153    0.391611543645167  0.0000
  Si     Si        0.086890755043282    0.001437449008932    0.177837812395219  0.0000
  Si     Si        0.897464696886805    0.026618005320653    0.871123344998485  0.0000
  O1     O1        0.260969006601850    0.259364670670085    0.454713796732970  0.0000
  O1     O1        0.767134894850779    0.366853636226637    0.564762972375036  0.0000
  O3     O3        0.712275105962210    0.765795727562157    0.555967657440104  0.0000
  O3     O3        0.226542392318654    0.660186559567097    0.438265902962222  0.0000
  O3     O3        0.280136282669495    0.506905123212248    0.242904206991287  0.0000
  O1     O1        0.698323943023475    0.542335625581309    0.768877911366935  0.0000
  O1     O1        0.507720331761892    0.269479212301218    0.348948857953553  0.0000
  O1     O1        0.537578226744288    0.238941602731083    0.669919787611055  0.0000
  O1     O1        0.462345500617951    0.780855927760526    0.668480872876246  0.0000
  O2     O2        0.456655368862797    0.772727865590395    0.358302535355108  0.0000
  O3     O3        0.206846521795330    0.159787129943852    0.186033653128269  0.0000
  O3     O3        0.853192985001799    0.222976482688968    0.828922002973994  0.0000
  O3     O3        0.748801201589309    0.903432304300114    0.812485385567879  0.0000
  O2     O2        0.175415373307513    0.822137662139449    0.195878657715475  0.0000
  O1     O1        0.310896861987854    0.465075294492129    0.681261630866236  0.0000
  O3     O3        0.675787485111549    0.583115490721528    0.334968762014847  0.0000
  O1     O1        0.262780129480595    0.108392411286448    0.708196702423996  0.0000
  O1     O1        0.800978536752562    0.257270582800863    0.321738551241509  0.0000
  O3     O3        0.717354477049591    0.912982524875042    0.323648843018245  0.0000
  O1     O1        0.148258879940492    0.772552382215838    0.657724479638512  0.0000
  O1     O1        0.954533208086944    0.053737305995103    0.543837998490135  0.0000
  O3     O3        0.015573959607845    0.008783888293747    0.301348998065142  0.0000
  O3     O3        0.037804039355319    0.970607351650285    0.821925165248442  0.0000
  O2     O2        0.949639566291416    0.007550565493212    0.036047261195231  0.0000
