data_c00041.vasp
_audit_creation_method             Generated by GULP
_audit_author_name                 Salvador R. G. Balestra
_symmetry_space_group_name_H-M     'P 1             '
_symmetry_Int_Tables_number        1

loop_
_symmetry_equiv_pos_site_id
_symmetry_equiv_pos_as_xyz
_cell_length_a                        9.0974
_cell_length_b                        7.9122
_cell_length_c                       10.3961
_cell_angle_alpha                   86.5928
_cell_angle_beta                   108.6410
_cell_angle_gamma                   90.5473

loop_
_atom_site_label
_atom_site_type_symbol
_atom_site_fract_x
_atom_site_fract_y
_atom_site_fract_z
_atom_site_charge
  Ge     Ge        0.313819999999964    0.296860000000038    0.309830000000034  0.0000
  Ge     Ge        0.722130434820036    0.250392243097990    0.717787520596656  0.0000
  Ge     Ge        0.711563469331381    0.659761156844662    0.724757495390817  0.0000
  Ge     Ge        0.346114495632936    0.247757002605031    0.631329497649721  0.0000
  Ge     Ge        0.699805950312811    0.294628038110506    0.397808917170884  0.0000
  Ge     Ge        0.886732672601075    0.981198427615036    0.340583723583737  0.0000
  Ge     Ge        0.127486397860891    0.939125600109530    0.653177283264727  0.0000
  Ge     Ge        0.118293353676332    0.981788805235398    0.164013766777932  0.0000
  Si     Si        0.327182685646414    0.676444114095129    0.344123944383573  0.0000
  Si     Si        0.696947095276662    0.678538637204457    0.421097619814220  0.0000
  Si     Si        0.346016856373709    0.645463454598002    0.644613199639000  0.0000
  Si     Si        0.931849988371450    0.942214914701113    0.859398547440017  0.0000
  O1     O1        0.272745044762535    0.245887972048926    0.457304757947064  0.0000
  O1     O1        0.768182203666975    0.244662143167653    0.570136769824158  0.0000
  O3     O3        0.771876188424634    0.695110235648784    0.582378877624384  0.0000
  O2     O2        0.274082847122701    0.667860336846791    0.479011692587263  0.0000
  O3     O3        0.267642805869885    0.510211072656063    0.262968532284812  0.0000
  O1     O1        0.739018124311159    0.450241545661221    0.775652558949524  0.0000
  O1     O1        0.505337881910961    0.255955466262221    0.331046365517453  0.0000
  O1     O1        0.535075580700760    0.181550005964048    0.679061589528924  0.0000
  O3     O3        0.519754349128929    0.716181116260831    0.692584357479639  0.0000
  O2     O2        0.513718699241633    0.658039745372764    0.398741706005627  0.0000
  O1     O1        0.192470542861368    0.181016463968368    0.185832097735211  0.0000
  O3     O3        0.840313023975676    0.118528645239057    0.846885236708798  0.0000
  O3     O3        0.817432133095612    0.784192044731620    0.852018285593474  0.0000
  O3     O3        0.270219137707375    0.847802834693874    0.257299676352564  0.0000
  O3     O3        0.343952144868722    0.448954941010594    0.689520953225089  0.0000
  O3     O3        0.747039123770024    0.505241009955987    0.374035998354026  0.0000
  O1     O1        0.240753617840265    0.114400582169893    0.701183496002252  0.0000
  O1     O1        0.802408636992831    0.177084498659223    0.322632230394027  0.0000
  O3     O3        0.740936014783045    0.836893701475288    0.340530972369885  0.0000
  O3     O3        0.240253281609359    0.755899915734562    0.704263852143875  0.0000
  O1     O1        0.047030951935153    0.953588520572796    0.480090315006755  0.0000
  O1     O1        0.952055653733525    0.955284352519816    0.205093560263535  0.0000
  O3     O3        0.985371695240572    0.934121816561402    0.726877583871596  0.0000
  O3     O3        0.075654049152748    0.932872251678673    0.995866829056393  0.0000
