data_c00003.vasp
_audit_creation_method             Generated by GULP
_audit_author_name                 Salvador R. G. Balestra
_symmetry_space_group_name_H-M     'P 1             '
_symmetry_Int_Tables_number        1

loop_
_symmetry_equiv_pos_site_id
_symmetry_equiv_pos_as_xyz
_cell_length_a                        8.9861
_cell_length_b                        7.7634
_cell_length_c                       10.3051
_cell_angle_alpha                   91.4715
_cell_angle_beta                   106.8553
_cell_angle_gamma                   87.1420

loop_
_atom_site_label
_atom_site_type_symbol
_atom_site_fract_x
_atom_site_fract_y
_atom_site_fract_z
_atom_site_charge
  Ge     Ge        0.313819999999964    0.296860000000038    0.309830000000034  0.0000
  Ge     Ge        0.691386724870009    0.227654842453334    0.715098828241626  0.0000
  Ge     Ge        0.743853664168333    0.628450059947435    0.724041255780153  0.0000
  Ge     Ge        0.366884641380676    0.702216912096235    0.322975640728216  0.0000
  Ge     Ge        0.317633667829174    0.314736097837452    0.622488044907260  0.0000
  Ge     Ge        0.688047086657245    0.214240139929487    0.400278357708259  0.0000
  Ge     Ge        0.737628006805556    0.618525161043531    0.407628816505620  0.0000
  Ge     Ge        0.135833324321910    0.998998622063875    0.682608902843906  0.0000
  Si     Si        0.377602470096664    0.710193794956730    0.633622799395362  0.0000
  Si     Si        0.927147568658725    0.922337216997438    0.378397300003746  0.0000
  Si     Si        0.125158424159554    0.986121089628459    0.180272393241728  0.0000
  Si     Si        0.928902292405872    0.939738355434055    0.880240155100928  0.0000
  O1     O1        0.246568864430354    0.315833815881952    0.449188970857812  0.0000
  O1     O1        0.757568883227598    0.209408343533847    0.574564522597597  0.0000
  O1     O1        0.803660295121609    0.603409297984428    0.581190540623446  0.0000
  O3     O3        0.310608817725684    0.715918072062525    0.470539636632880  0.0000
  O1     O1        0.332934071479096    0.497462729646708    0.254861662117094  0.0000
  O1     O1        0.731344706238601    0.429686306768018    0.786292611914199  0.0000
  O1     O1        0.491873013150017    0.186127667202128    0.355702414048909  0.0000
  O1     O1        0.495160714255588    0.204492146107565    0.667423261639643  0.0000
  O3     O3        0.561802756341971    0.733759773084406    0.676079099309803  0.0000
  O1     O1        0.561811618671414    0.733205267601361    0.363606560130876  0.0000
  O3     O3        0.184268222259654    0.177399297136175    0.186578149280708  0.0000
  O3     O3        0.780562711829844    0.069129275245086    0.828621796272495  0.0000
  O3     O3        0.877591584687675    0.746285396526867    0.841646048146108  0.0000
  O3     O3        0.269595147116414    0.849288858817555    0.201905135542417  0.0000
  O3     O3        0.343100589863008    0.524352451588220    0.683212353138883  0.0000
  O1     O1        0.717089829840202    0.413787068767654    0.343230966328006  0.0000
  O1     O1        0.189803549464651    0.207778632851316    0.682053380059823  0.0000
  O3     O3        0.782999685155730    0.059689290032942    0.326904885728337  0.0000
  O3     O3        0.867194715319096    0.730126043907165    0.348697409578547  0.0000
  O3     O3        0.296969860519279    0.860374919108789    0.701350414251964  0.0000
  O3     O3        0.990148401981178    0.946664719598480    0.540473277562353  0.0000
  O2     O2        0.061190373386709    0.955024845550160    0.309422261092953  0.0000
  O3     O3        0.068222375926810    0.987241138306786    0.821812471706690  0.0000
  O2     O2        0.990275794863292    0.953282464045854    0.043304619169515  0.0000
