data_c00053.vasp
_audit_creation_method             Generated by GULP
_audit_author_name                 Salvador R. G. Balestra
_symmetry_space_group_name_H-M     'P 1             '
_symmetry_Int_Tables_number        1

loop_
_symmetry_equiv_pos_site_id
_symmetry_equiv_pos_as_xyz
_cell_length_a                        9.3379
_cell_length_b                        7.8250
_cell_length_c                        9.9867
_cell_angle_alpha                   84.1993
_cell_angle_beta                   110.0368
_cell_angle_gamma                   88.3965

loop_
_atom_site_label
_atom_site_type_symbol
_atom_site_fract_x
_atom_site_fract_y
_atom_site_fract_z
_atom_site_charge
  Ge     Ge        0.313819999999964    0.296860000000038    0.309830000000034  0.0000
  Ge     Ge        0.682968284386920    0.241910825381816    0.714133252627744  0.0000
  Ge     Ge        0.714357632725471    0.621643232657927    0.742740219035380  0.0000
  Ge     Ge        0.333238553647283    0.236822699056970    0.641818081229969  0.0000
  Ge     Ge        0.654811922037800    0.713492262290742    0.398426539873441  0.0000
  Ge     Ge        0.880086851696148    0.008882048476318    0.407066863150467  0.0000
  Ge     Ge        0.068207796719870    0.033876042184076    0.182449740224464  0.0000
  Ge     Ge        0.918079151752767    0.922180133002265    0.867255905987598  0.0000
  Si     Si        0.300874165334341    0.704754226248478    0.328071741492573  0.0000
  Si     Si        0.649325123786483    0.328391072543887    0.394466374116400  0.0000
  Si     Si        0.350338368597617    0.635657062016058    0.655340357939151  0.0000
  Si     Si        0.147775132502600    0.922889315506873    0.708629475431338  0.0000
  O1     O1        0.304167042400749    0.197894918026041    0.468239249874675  0.0000
  O3     O3        0.602842211499033    0.349384989344503    0.537145109117866  0.0000
  O1     O1        0.717986389411002    0.717346357358287    0.581313304841661  0.0000
  O2     O2        0.319770815367791    0.721769132303303    0.493363218595601  0.0000
  O3     O3        0.263311814359074    0.513897379609794    0.289571246352662  0.0000
  O1     O1        0.778428991216156    0.408533269729006    0.794963927263773  0.0000
  O3     O3        0.491018182617972    0.272334818691303    0.286906639752489  0.0000
  O1     O1        0.520248411555326    0.187852431411851    0.748663725698651  0.0000
  O3     O3        0.528829278442273    0.617619786096711    0.744054063270273  0.0000
  O3     O3        0.459942831985878    0.758939617814376    0.314313568102617  0.0000
  O1     O1        0.189841531771270    0.192513606037553    0.180185858675163  0.0000
  O1     O1        0.793354641971675    0.062394336719520    0.727448173978097  0.0000
  O1     O1        0.832095681256901    0.733326845359616    0.871374668789250  0.0000
  O3     O3        0.161385836906052    0.830095103272392    0.225507050063614  0.0000
  O3     O3        0.281696184982739    0.449987579865892    0.651246355730039  0.0000
  O3     O3        0.695900045494197    0.515099721860286    0.349804155185491  0.0000
  O3     O3        0.213472664816702    0.108777421108246    0.699924674307851  0.0000
  O3     O3        0.790151941499576    0.191647923200461    0.435381904760891  0.0000
  O1     O1        0.748214379022129    0.866263374829816    0.332383353296188  0.0000
  O2     O2        0.273439617773563    0.767566867083688    0.728845385076725  0.0000
  O3     O3        0.001970724676622    0.905587798935762    0.567761735215914  0.0000
  O1     O1        0.973233337320921    0.079656919273310    0.295102499210425  0.0000
  O3     O3        0.092801717237673    0.898516476613150    0.844443555278942  0.0000
  O1     O1        0.936349244070088    0.025090889793287    0.014974508771743  0.0000
