data_c00062.vasp
_audit_creation_method             Generated by GULP
_audit_author_name                 Salvador R. G. Balestra
_symmetry_space_group_name_H-M     'P 1             '
_symmetry_Int_Tables_number        1

loop_
_symmetry_equiv_pos_site_id
_symmetry_equiv_pos_as_xyz
_cell_length_a                        9.0782
_cell_length_b                        7.8095
_cell_length_c                       10.1770
_cell_angle_alpha                   87.9221
_cell_angle_beta                   105.8383
_cell_angle_gamma                   91.6974

loop_
_atom_site_label
_atom_site_type_symbol
_atom_site_fract_x
_atom_site_fract_y
_atom_site_fract_z
_atom_site_charge
  Ge     Ge        0.313819999999964    0.296860000000038    0.309830000000034  0.0000
  Ge     Ge        0.669575076672950    0.327858157314356    0.718318426422271  0.0000
  Ge     Ge        0.639330359459072    0.732672788690367    0.714704133936308  0.0000
  Ge     Ge        0.681542124005390    0.353806481736444    0.398405443786788  0.0000
  Ge     Ge        0.633331074444613    0.756888590322356    0.395566547008803  0.0000
  Ge     Ge        0.272928194435653    0.670361473618384    0.621293667674211  0.0000
  Ge     Ge        0.870631088062289    0.045146473196155    0.333832439234980  0.0000
  Ge     Ge        0.883774199533116    0.018912613936762    0.848364985897610  0.0000
  Si     Si        0.271805136876025    0.691448786290644    0.313153103987109  0.0000
  Si     Si        0.309594070473322    0.272217260263723    0.621281613989745  0.0000
  Si     Si        0.078446074693648    0.978297501263980    0.635263643123099  0.0000
  Si     Si        0.090552046175843    0.001523061225959    0.147556616002918  0.0000
  O3     O3        0.253951034131589    0.274310753974853    0.456691140053787  0.0000
  O1     O1        0.731670697435493    0.348012684735883    0.573772802778560  0.0000
  O1     O1        0.702709743749354    0.760812539698898    0.570310418491318  0.0000
  O3     O3        0.209347276661953    0.661990281215826    0.444997396038148  0.0000
  O3     O3        0.283332179871070    0.508446976367921    0.249626954733248  0.0000
  O1     O1        0.658759056841050    0.525432689193788    0.778321697620803  0.0000
  O1     O1        0.503327515434588    0.256230626347253    0.340524951490376  0.0000
  O3     O3        0.488239774635010    0.230141150230940    0.669933336008547  0.0000
  O1     O1        0.447100791699038    0.771978259651222    0.673063118266327  0.0000
  O3     O3        0.437816709771559    0.781964664848371    0.360309032870547  0.0000
  O3     O3        0.210773067519172    0.156590549106686    0.191827789719765  0.0000
  O1     O1        0.792259705195054    0.208564781563574    0.841997197462135  0.0000
  O1     O1        0.747317416459671    0.860618697017034    0.838847563565666  0.0000
  O2     O2        0.159546130083563    0.817473371018579    0.204930163153787  0.0000
  O3     O3        0.283527883205154    0.457283831622015    0.677058959540030  0.0000
  O1     O1        0.671689528364837    0.562634350866738    0.340217865677955  0.0000
  O2     O2        0.211097325077688    0.126638014673628    0.678038246891842  0.0000
  O1     O1        0.817723304738169    0.251485220650887    0.345264219156785  0.0000
  O1     O1        0.709321311148106    0.918585304393893    0.316956380229370  0.0000
  O3     O3        0.149088100947339    0.791091791742766    0.680929982696252  0.0000
  O3     O3        0.015103890048727    0.977251916783665    0.471594189516014  0.0000
  O3     O3        0.936167944834641    0.033797003542263    0.190428767344088  0.0000
  O3     O3        0.943077065304501    0.014641500203550    0.699819712540555  0.0000
  O3     O3        0.042590911392407    0.995634557381022    0.984152505112897  0.0000
