data_c00040.vasp
_audit_creation_method             Generated by GULP
_audit_author_name                 Salvador R. G. Balestra
_symmetry_space_group_name_H-M     'P 1             '
_symmetry_Int_Tables_number        1

loop_
_symmetry_equiv_pos_site_id
_symmetry_equiv_pos_as_xyz
_cell_length_a                        8.9614
_cell_length_b                        7.8525
_cell_length_c                       10.2731
_cell_angle_alpha                   88.2278
_cell_angle_beta                   105.6778
_cell_angle_gamma                   88.8936

loop_
_atom_site_label
_atom_site_type_symbol
_atom_site_fract_x
_atom_site_fract_y
_atom_site_fract_z
_atom_site_charge
  Ge     Ge        0.313819999999964    0.296860000000038    0.309830000000034  0.0000
  Ge     Ge        0.682521440299122    0.206387460002697    0.717900362873077  0.0000
  Ge     Ge        0.720060236300078    0.613934195946848    0.732892688817540  0.0000
  Ge     Ge        0.311800572153352    0.273164765217938    0.625461762400836  0.0000
  Ge     Ge        0.693188515406110    0.234653522165810    0.404402865690723  0.0000
  Ge     Ge        0.351701461171479    0.676848101571055    0.638597192123568  0.0000
  Ge     Ge        0.136330227789944    0.974226721693148    0.167505090767733  0.0000
  Ge     Ge        0.923378635848198    0.914730377697398    0.864274330336559  0.0000
  Si     Si        0.359650282347691    0.681868019221586    0.335174583893222  0.0000
  Si     Si        0.726558645638512    0.625237883011251    0.428793197660348  0.0000
  Si     Si        0.907387149532605    0.935917138328216    0.351042441542139  0.0000
  Si     Si        0.110444276249945    0.966867420124010    0.647131469427549  0.0000
  O1     O1        0.250731994860643    0.291052284142879    0.452218776491981  0.0000
  O1     O1        0.749560573358988    0.198038117436910    0.575731371085399  0.0000
  O3     O3        0.790355870501836    0.613885915222467    0.590085351064775  0.0000
  O3     O3        0.289695047574296    0.684577449065892    0.463215927561414  0.0000
  O3     O3        0.313748259765917    0.509134010072177    0.255534691045342  0.0000
  O1     O1        0.700950856437730    0.408595802942343    0.780337556922223  0.0000
  O1     O1        0.498217847866564    0.210773092182286    0.342171451258689  0.0000
  O1     O1        0.488542689882468    0.166851001312298    0.667466580492357  0.0000
  O1     O1        0.543518275174287    0.721783471995649    0.696832549044712  0.0000
  O2     O2        0.545510310647420    0.682108103999200    0.397589246048892  0.0000
  O1     O1        0.189034562603816    0.180943864403805    0.190590395446683  0.0000
  O1     O1        0.780282741193926    0.069456591608649    0.846374598592805  0.0000
  O1     O1        0.846301456737031    0.716734991274500    0.859666178813647  0.0000
  O3     O3        0.298464678107374    0.845450556753584    0.238958035292547  0.0000
  O1     O1        0.325168573297948    0.471392936665211    0.691367903669021  0.0000
  O3     O3        0.740008310106543    0.442482008903670    0.368306895279497  0.0000
  O3     O3        0.183721507633513    0.150313618803491    0.683877178156926  0.0000
  O3     O3        0.788639670743849    0.095937735664033    0.325510635189930  0.0000
  O2     O2        0.818425197532412    0.762400243274638    0.364057581809272  0.0000
  O3     O3        0.242865866741291    0.819920710115051    0.700140514278374  0.0000
  O2     O2        0.050188872289106    0.961273587635530    0.483169061077670  0.0000
  O3     O3        0.976927331429296    0.922112712039945    0.223990674807824  0.0000
  O3     O3        0.972122133660062    0.939751814800724    0.712007151347106  0.0000
  O1     O1        0.079715463369904    0.939494950063760    0.997493991687614  0.0000
