data_c00073.vasp
_audit_creation_method             Generated by GULP
_audit_author_name                 Salvador R. G. Balestra
_symmetry_space_group_name_H-M     'P 1             '
_symmetry_Int_Tables_number        1

loop_
_symmetry_equiv_pos_site_id
_symmetry_equiv_pos_as_xyz
_cell_length_a                        9.0202
_cell_length_b                        7.8124
_cell_length_c                       10.3159
_cell_angle_alpha                   88.5731
_cell_angle_beta                   106.1787
_cell_angle_gamma                   88.9750

loop_
_atom_site_label
_atom_site_type_symbol
_atom_site_fract_x
_atom_site_fract_y
_atom_site_fract_z
_atom_site_charge
  Ge     Ge        0.313819999999964    0.296860000000038    0.309830000000034  0.0000
  Ge     Ge        0.687473614420904    0.199466736314005    0.709085342119827  0.0000
  Ge     Ge        0.732573183779325    0.606610703996703    0.729706874104315  0.0000
  Ge     Ge        0.687831403520923    0.229967787071646    0.394185788124821  0.0000
  Ge     Ge        0.366674373376109    0.672902851407331    0.638828158321100  0.0000
  Ge     Ge        0.120907123607169    0.970200623096243    0.638302651972984  0.0000
  Ge     Ge        0.132220277375546    0.974041439683353    0.164515260250977  0.0000
  Ge     Ge        0.928434467345400    0.914815903818383    0.858694092570026  0.0000
  Si     Si        0.360749555782080    0.686148042054407    0.333950713727816  0.0000
  Si     Si        0.328422712429230    0.275092440247242    0.621203655637436  0.0000
  Si     Si        0.725490490004952    0.624003612142702    0.422371146241248  0.0000
  Si     Si        0.904669398142721    0.934287125266956    0.339964609042151  0.0000
  O3     O3        0.265257454629362    0.298780586650456    0.459610587525848  0.0000
  O1     O1        0.748353020844769    0.189857712519700    0.564719180389109  0.0000
  O3     O3        0.793417687054715    0.612597327559526    0.583060267090593  0.0000
  O3     O3        0.298670302747345    0.700029165713253    0.464547476993722  0.0000
  O3     O3        0.311518572768074    0.510395014688541    0.257528589897714  0.0000
  O1     O1        0.721649875458059    0.399347129599194    0.776743611350354  0.0000
  O1     O1        0.493573341390094    0.206662912217364    0.329391510792170  0.0000
  O3     O3        0.490639072357591    0.170040372192664    0.653286628006781  0.0000
  O1     O1        0.558104069710772    0.716315943870245    0.698935983877514  0.0000
  O2     O2        0.546861058718623    0.687195685178085    0.391165793532879  0.0000
  O1     O1        0.179800268519698    0.182744956766015    0.196869279464586  0.0000
  O1     O1        0.773541442712035    0.056547155257640    0.835849357332781  0.0000
  O1     O1        0.865024506026160    0.709506749539409    0.853298710309001  0.0000
  O3     O3        0.294555705084816    0.846126059298707    0.234659381913650  0.0000
  O3     O3        0.351564420360543    0.459964443610155    0.686418494064176  0.0000
  O3     O3        0.732620270451306    0.439973474900265    0.360509300817965  0.0000
  O3     O3        0.211390355878101    0.164750954786513    0.676875790950953  0.0000
  O3     O3        0.783187422262903    0.092025124090017    0.315175055562240  0.0000
  O2     O2        0.821242799833452    0.758973744963931    0.360869483294967  0.0000
  O1     O1        0.252436635845523    0.804441121872380    0.700734206600510  0.0000
  O3     O3        0.052911708941249    0.965905191833759    0.464115458618119  0.0000
  O3     O3        0.968444870734572    0.916879093910112    0.210139097588543  0.0000
  O1     O1        0.975787495552370    0.960291003778839    0.710258895876692  0.0000
  O1     O1        0.081835081412772    0.948979370866944    0.993016369521193  0.0000
