data_c00004.vasp
_audit_creation_method             Generated by GULP
_audit_author_name                 Salvador R. G. Balestra
_symmetry_space_group_name_H-M     'P 1             '
_symmetry_Int_Tables_number        1

loop_
_symmetry_equiv_pos_site_id
_symmetry_equiv_pos_as_xyz
_cell_length_a                        9.0995
_cell_length_b                        7.7056
_cell_length_c                       10.1382
_cell_angle_alpha                   86.1456
_cell_angle_beta                   106.0410
_cell_angle_gamma                   91.7796

loop_
_atom_site_label
_atom_site_type_symbol
_atom_site_fract_x
_atom_site_fract_y
_atom_site_fract_z
_atom_site_charge
  Ge     Ge        0.313819999999964    0.296860000000038    0.309830000000034  0.0000
  Ge     Ge        0.681799213854785    0.334256439465958    0.723981840462872  0.0000
  Ge     Ge        0.633579404614276    0.739570743875327    0.724935179320318  0.0000
  Ge     Ge        0.271932206601741    0.697298477844418    0.316239938962201  0.0000
  Ge     Ge        0.311219731419468    0.268327598922763    0.628627110180969  0.0000
  Ge     Ge        0.677399197807261    0.388187146161603    0.402425090403526  0.0000
  Ge     Ge        0.618517795993566    0.797748968760263    0.390906329237564  0.0000
  Ge     Ge        0.070012808651331    0.014802835208801    0.158228792386267  0.0000
  Si     Si        0.288682246124390    0.659256781491772    0.639515303452048  0.0000
  Si     Si        0.860597623139159    0.087515117206355    0.342356738467533  0.0000
  Si     Si        0.076745699050190    0.969329359570652    0.634415645373571  0.0000
  Si     Si        0.884933980081356    0.009146230925435    0.845612107688658  0.0000
  O1     O1        0.250942100537393    0.251225977581760    0.454263816206767  0.0000
  O1     O1        0.734442866651104    0.388974565099960    0.577372892825257  0.0000
  O1     O1        0.661615229299756    0.793037598430080    0.566754111317383  0.0000
  O3     O3        0.305741169666971    0.623431225529436    0.488131828227691  0.0000
  O1     O1        0.271300978837163    0.505762994614351    0.240618737484005  0.0000
  O1     O1        0.674221653152583    0.530339307740666    0.791165734419115  0.0000
  O1     O1        0.508104799348765    0.273518513980370    0.353823895966782  0.0000
  O1     O1        0.504803610299318    0.232741916336631    0.685309206981394  0.0000
  O3     O3        0.440500395631895    0.760913577820770    0.716693966947964  0.0000
  O1     O1        0.427158395522244    0.830263175355171    0.315931014303522  0.0000
  O1     O1        0.221805336207082    0.155042007604778    0.189524007577571  0.0000
  O3     O3        0.822352419213730    0.203817097746466    0.830105295398487  0.0000
  O3     O3        0.741794996098716    0.879852622683551    0.839849012794821  0.0000
  O1     O1        0.112580555117503    0.813804296018072    0.243723989724568  0.0000
  O3     O3        0.274540626429833    0.461326307211119    0.695598060099480  0.0000
  O1     O1        0.658163363826874    0.599426149484850    0.338836082701968  0.0000
  O3     O3        0.209184795540109    0.105881981325807    0.694371798340776  0.0000
  O3     O3        0.818789444587684    0.284554814021802    0.355177054252620  0.0000
  O3     O3        0.712768438821949    0.964823865342555    0.326957864551150  0.0000
  O2     O2        0.143558522400617    0.774986422907240    0.638374786650787  0.0000
  O2     O2        0.994369816830515    0.016816166272451    0.474593926619437  0.0000
  O3     O3        0.918594840427815    0.091792842479884    0.207494142732182  0.0000
  O2     O2        0.951721681177710    0.962570185567737    0.719456759857445  0.0000
  O3     O3        0.016648847403856    0.981198599027144    0.984805655896618  0.0000
