data_c00043.vasp
_audit_creation_method             Generated by GULP
_audit_author_name                 Salvador R. G. Balestra
_symmetry_space_group_name_H-M     'P 1             '
_symmetry_Int_Tables_number        1

loop_
_symmetry_equiv_pos_site_id
_symmetry_equiv_pos_as_xyz
_cell_length_a                        9.2775
_cell_length_b                        7.7759
_cell_length_c                       10.1011
_cell_angle_alpha                   87.7623
_cell_angle_beta                   108.5776
_cell_angle_gamma                   87.7634

loop_
_atom_site_label
_atom_site_type_symbol
_atom_site_fract_x
_atom_site_fract_y
_atom_site_fract_z
_atom_site_charge
  Ge     Ge        0.313819999999964    0.296860000000038    0.309830000000034  0.0000
  Ge     Ge        0.708467679120835    0.192026637344075    0.725079252651960  0.0000
  Ge     Ge        0.741401452654979    0.606845781918702    0.738123525370064  0.0000
  Ge     Ge        0.345419883755255    0.260512718382352    0.649315706494839  0.0000
  Ge     Ge        0.677135814257352    0.228754590520785    0.398799016031888  0.0000
  Ge     Ge        0.902003784368516    0.930121580671593    0.342798252207858  0.0000
  Ge     Ge        0.135896205372322    0.972382775138730    0.176532252281681  0.0000
  Ge     Ge        0.968049363376472    0.891705223278437    0.862405744488407  0.0000
  Si     Si        0.374455651912161    0.674344662509347    0.346309630083213  0.0000
  Si     Si        0.718426414460572    0.631293805065419    0.423326668293812  0.0000
  Si     Si        0.392756390495751    0.643943553197192    0.666290109414621  0.0000
  Si     Si        0.150368138437016    0.949580570308197    0.643662603517135  0.0000
  O1     O1        0.313952693779226    0.238516198432136    0.474915518278173  0.0000
  O1     O1        0.694473263015889    0.132504636192197    0.559189408388493  0.0000
  O3     O3        0.742106546922335    0.696393027753328    0.577409180904237  0.0000
  O2     O2        0.407096763804374    0.622662438659800    0.511102645343895  0.0000
  O3     O3        0.277848463905910    0.518911610169826    0.269219882384078  0.0000
  O1     O1        0.781585077046929    0.392040963962315    0.749819762441436  0.0000
  O1     O1        0.491354613405401    0.250589037672419    0.296640861343302  0.0000
  O1     O1        0.530405209657785    0.199571929146969    0.742090887799222  0.0000
  O3     O3        0.565804146505473    0.652425123594599    0.763317515928126  0.0000
  O2     O2        0.541236931519511    0.671482897608848    0.326498432619837  0.0000
  O1     O1        0.178055288539993    0.185096749005841    0.194659006101725  0.0000
  O1     O1        0.830557146470967    0.052830014645313    0.847038768307970  0.0000
  O1     O1        0.880599313682523    0.701874465982122    0.862390187611084  0.0000
  O3     O3        0.291370280549725    0.857810528251207    0.296747460745643  0.0000
  O3     O3        0.316020448354992    0.470484087320842    0.694007447452325  0.0000
  O3     O3        0.757484633675177    0.428350359752991    0.428419766316401  0.0000
  O3     O3        0.218242788274673    0.131489017872379    0.694237280047219  0.0000
  O1     O1        0.775168043408176    0.101807024569007    0.318638938131429  0.0000
  O3     O3        0.825550781625858    0.734187726574507    0.355566006094608  0.0000
  O2     O2        0.294263581390290    0.810262184987511    0.681484815361176  0.0000
  O3     O3        0.068181169216986    0.958070731011976    0.478153946180396  0.0000
  O1     O1        0.967242116996771    0.928666316462408    0.201647101742643  0.0000
  O3     O3        0.029545358388311    0.900147507771018    0.717337051921377  0.0000
  O1     O1        0.117872873446807    0.912873403554525    0.010319970080341  0.0000
