data_c00078.vasp
_audit_creation_method             Generated by GULP
_audit_author_name                 Salvador R. G. Balestra
_symmetry_space_group_name_H-M     'P 1             '
_symmetry_Int_Tables_number        1

loop_
_symmetry_equiv_pos_site_id
_symmetry_equiv_pos_as_xyz
_cell_length_a                        9.2660
_cell_length_b                        7.7642
_cell_length_c                       10.1773
_cell_angle_alpha                   86.8703
_cell_angle_beta                   111.2734
_cell_angle_gamma                   86.8355

loop_
_atom_site_label
_atom_site_type_symbol
_atom_site_fract_x
_atom_site_fract_y
_atom_site_fract_z
_atom_site_charge
  Ge     Ge        0.313819999999964    0.296860000000038    0.309830000000034  0.0000
  Ge     Ge        0.686946301294112    0.208870036908992    0.701746070944085  0.0000
  Ge     Ge        0.768501314393701    0.580528429281595    0.739897875586275  0.0000
  Ge     Ge        0.705637256765965    0.648130714353373    0.400684604818649  0.0000
  Ge     Ge        0.389178430979388    0.654852146950760    0.649793048558960  0.0000
  Ge     Ge        0.169651924119521    0.950966300921484    0.703757694720514  0.0000
  Ge     Ge        0.080976247515818    0.015122414550965    0.183959324155994  0.0000
  Ge     Ge        0.940214154009033    0.903010971242283    0.869111410455166  0.0000
  Si     Si        0.340143448132286    0.705618709745492    0.329015530992381  0.0000
  Si     Si        0.336364107485246    0.259455408322645    0.626046491451180  0.0000
  Si     Si        0.657982725884231    0.269687464772375    0.382896443660520  0.0000
  Si     Si        0.900580109235718    0.953027981554277    0.399415391497507  0.0000
  O3     O3        0.315651880347071    0.204161237377116    0.469779696207997  0.0000
  O3     O3        0.627785836624794    0.305874228409581    0.528096393769659  0.0000
  O1     O1        0.775349345402285    0.654163352024350    0.579892496520241  0.0000
  O3     O3        0.351001783956203    0.756562218911757    0.483344491567618  0.0000
  O3     O3        0.277400553260114    0.516997794584919    0.300161970879925  0.0000
  O1     O1        0.808123268916648    0.361614920488865    0.786413994945192  0.0000
  O3     O3        0.484449571638206    0.247116176491135    0.277549802731194  0.0000
  O3     O3        0.513736241187970    0.203946025691252    0.730084168469001  0.0000
  O1     O1        0.582517237955668    0.614095929716422    0.739681150269462  0.0000
  O3     O3        0.509302100215197    0.709202979894595    0.320921017010628  0.0000
  O1     O1        0.169068703033660    0.203144870279555    0.185079359549125  0.0000
  O1     O1        0.779073969916255    0.009396015517545    0.734287763761176  0.0000
  O1     O1        0.901969992512248    0.690098526865915    0.864054083607399  0.0000
  O3     O3        0.218630830885533    0.842129585369344    0.214061625356347  0.0000
  O3     O3        0.297613466297681    0.463195981048619    0.626607990744870  0.0000
  O3     O3        0.729488145695318    0.441683940289729    0.347153974733003  0.0000
  O3     O3        0.220128029907894    0.157434808604347    0.679871306755941  0.0000
  O2     O2        0.774432156816502    0.101752969488377    0.407035180513353  0.0000
  O3     O3        0.808610504338060    0.788312062757338    0.337016897958706  0.0000
  O1     O1        0.318420243098864    0.794343691285460    0.739592948944499  0.0000
  O3     O3        0.018177439782864    0.897124305966844    0.556689190028455  0.0000
  O3     O3        0.988445848241664    0.025113032792856    0.303146829208145  0.0000
  O1     O1        0.107696006662716    0.943676599359403    0.842869790185632  0.0000
  O1     O1        0.944505767991149    0.989993082103990    0.021623715594913  0.0000
