data_c00037.vasp
_audit_creation_method             Generated by GULP
_audit_author_name                 Salvador R. G. Balestra
_symmetry_space_group_name_H-M     'P 1             '
_symmetry_Int_Tables_number        1

loop_
_symmetry_equiv_pos_site_id
_symmetry_equiv_pos_as_xyz
_cell_length_a                        9.0011
_cell_length_b                        7.8935
_cell_length_c                       10.1978
_cell_angle_alpha                   87.0088
_cell_angle_beta                   105.9900
_cell_angle_gamma                   91.6049

loop_
_atom_site_label
_atom_site_type_symbol
_atom_site_fract_x
_atom_site_fract_y
_atom_site_fract_z
_atom_site_charge
  Ge     Ge        0.313819999999964    0.296860000000038    0.309830000000034  0.0000
  Ge     Ge        0.692188868447241    0.291668134848153    0.720842760873603  0.0000
  Ge     Ge        0.664720756127587    0.699431479004939    0.721838821077130  0.0000
  Ge     Ge        0.320108993835877    0.252886562103893    0.629371864826620  0.0000
  Ge     Ge        0.695333562874689    0.325045557803917    0.403361168087864  0.0000
  Ge     Ge        0.296315950856332    0.656914981688157    0.633970313091144  0.0000
  Ge     Ge        0.884059955122863    0.011858342775800    0.344856350844438  0.0000
  Ge     Ge        0.899705250858815    0.983540327030054    0.863163590408055  0.0000
  Si     Si        0.301632518661928    0.681323815894973    0.328724778773781  0.0000
  Si     Si        0.669689797574338    0.714871236481820    0.416355182570648  0.0000
  Si     Si        0.092150832057668    0.956215702284625    0.649868862137688  0.0000
  Si     Si        0.111924369182117    0.991557309860661    0.160295642225509  0.0000
  O1     O1        0.253369871979686    0.262316784497806    0.453728963265673  0.0000
  O1     O1        0.758276219377634    0.297016260504067    0.577611548132727  0.0000
  O3     O3        0.736279158384939    0.723939268155747    0.579249894248574  0.0000
  O3     O3        0.231677352500754    0.657657848244161    0.456337498267411  0.0000
  O3     O3        0.279995169771983    0.507937968147234    0.250434475789481  0.0000
  O1     O1        0.678492301863765    0.489422567205857    0.775172238910153  0.0000
  O1     O1        0.506564697704132    0.258115398247365    0.341971097550846  0.0000
  O1     O1        0.510667189313216    0.200132114090064    0.671699187137970  0.0000
  O1     O1        0.474216807043041    0.753149459651537    0.685638305305806  0.0000
  O2     O2        0.484535808073818    0.716010560580302    0.392199101924514  0.0000
  O3     O3        0.202916574583640    0.168556507735831    0.187150275629366  0.0000
  O1     O1        0.808687682279793    0.172770946987715    0.852720593326135  0.0000
  O1     O1        0.769881846938453    0.818714638427707    0.851398870771166  0.0000
  O2     O2        0.226390052828124    0.840313620740213    0.232184209829395  0.0000
  O1     O1        0.301188005092614    0.449079557108026    0.690423219734534  0.0000
  O3     O3        0.713753116331011    0.540056829663470    0.363783845965350  0.0000
  O3     O3        0.219539223987125    0.103852085716856    0.700835305591635  0.0000
  O1     O1        0.811755580386956    0.211891732216802    0.333925388895794  0.0000
  O3     O3        0.730984408484144    0.871199071285958    0.340017247401303  0.0000
  O3     O3        0.168928526028484    0.772396529016493    0.691758800950858  0.0000
  O3     O3        0.037086023645570    0.975251182455102    0.485380841705184  0.0000
  O3     O3        0.953692500940780    0.988232693750638    0.205001550748828  0.0000
  O3     O3        0.951479831319275    0.977321454016782    0.711448217511803  0.0000
  O3     O3        0.060643342974818    0.964288770409423    0.999375780891295  0.0000
