data_c00077.vasp
_audit_creation_method             Generated by GULP
_audit_author_name                 Salvador R. G. Balestra
_symmetry_space_group_name_H-M     'P 1             '
_symmetry_Int_Tables_number        1

loop_
_symmetry_equiv_pos_site_id
_symmetry_equiv_pos_as_xyz
_cell_length_a                        9.0666
_cell_length_b                        7.7633
_cell_length_c                       10.3044
_cell_angle_alpha                   88.6414
_cell_angle_beta                   105.5627
_cell_angle_gamma                   91.1896

loop_
_atom_site_label
_atom_site_type_symbol
_atom_site_fract_x
_atom_site_fract_y
_atom_site_fract_z
_atom_site_charge
  Ge     Ge        0.313819999999964    0.296860000000038    0.309830000000034  0.0000
  Ge     Ge        0.656348448187150    0.345404585932942    0.710796010206909  0.0000
  Ge     Ge        0.621790516525562    0.752762188788370    0.701638935165311  0.0000
  Ge     Ge        0.616131925127547    0.762882775300835    0.386680392414197  0.0000
  Ge     Ge        0.258235813164968    0.677015743363468    0.610198545122171  0.0000
  Ge     Ge        0.850483187984434    0.056373931324745    0.330031706266725  0.0000
  Ge     Ge        0.077220815309259    0.007154405457461    0.142341632846702  0.0000
  Ge     Ge        0.871506072148131    0.034942293590468    0.834570311769320  0.0000
  Si     Si        0.258535820261696    0.691459258003419    0.303279838594353  0.0000
  Si     Si        0.300422660439626    0.276721685899575    0.614521339092752  0.0000
  Si     Si        0.668707944141161    0.364108849214553    0.403078307154118  0.0000
  Si     Si        0.063574791321386    0.988531811119879    0.622331586296300  0.0000
  O3     O3        0.248952918109414    0.272183566373016    0.452382692562954  0.0000
  O3     O3        0.713594377766690    0.374662329765592    0.564262071570614  0.0000
  O1     O1        0.682171037830911    0.784510477668819    0.557489757489309  0.0000
  O3     O3        0.202232802513671    0.663363825528374    0.437003730771881  0.0000
  O3     O3        0.279353474854113    0.505309797531250    0.246165367296914  0.0000
  O1     O1        0.643282787927961    0.545865655803742    0.767133585066857  0.0000
  O3     O3        0.507903076347504    0.260470887891844    0.352692879804527  0.0000
  O3     O3        0.479803115361772    0.237587615096475    0.668915083441159  0.0000
  O1     O1        0.428676585336460    0.786373879245901    0.660406355566679  0.0000
  O3     O3        0.420371345290751    0.794203531871022    0.340420693018231  0.0000
  O1     O1        0.223602557831029    0.154312296590237    0.191511483441975  0.0000
  O1     O1        0.785845991083545    0.231196147980032    0.829434787770905  0.0000
  O1     O1        0.728989467197865    0.882734414736652    0.823577303648967  0.0000
  O3     O3        0.134034022852667    0.800622023054959    0.195391554776036  0.0000
  O3     O3        0.272037445228328    0.464828782769381    0.667425411346209  0.0000
  O3     O3        0.652043819016467    0.556615464466858    0.341803858533263  0.0000
  O2     O2        0.199697641925946    0.132614127170824    0.668908035862459  0.0000
  O3     O3        0.796292947674058    0.262033112900889    0.356658551754526  0.0000
  O1     O1        0.701164661090687    0.911202833013552    0.304885212751407  0.0000
  O3     O3        0.130024543239263    0.798026861752813    0.665842621637362  0.0000
  O3     O3        0.002089654363283    0.990060404981364    0.460830084976498  0.0000
  O1     O1        0.918210805414035    0.064900036926678    0.189968819625834  0.0000
  O3     O3        0.927988498392642    0.027253079714606    0.686230533400026  0.0000
  O1     O1        0.024167502084032    0.006265435173214    0.968905589822648  0.0000
