data_c00085.vasp
_audit_creation_method             Generated by GULP
_audit_author_name                 Salvador R. G. Balestra
_symmetry_space_group_name_H-M     'P 1             '
_symmetry_Int_Tables_number        1

loop_
_symmetry_equiv_pos_site_id
_symmetry_equiv_pos_as_xyz
_cell_length_a                        9.2421
_cell_length_b                        7.7553
_cell_length_c                       10.2914
_cell_angle_alpha                   86.8070
_cell_angle_beta                   109.1248
_cell_angle_gamma                   91.5171

loop_
_atom_site_label
_atom_site_type_symbol
_atom_site_fract_x
_atom_site_fract_y
_atom_site_fract_z
_atom_site_charge
  Ge     Ge        0.313819999999964    0.296860000000038    0.309830000000034  0.0000
  Ge     Ge        0.709629623406355    0.335637854720321    0.711695003500139  0.0000
  Ge     Ge        0.338846978456789    0.273768042057452    0.627939427940921  0.0000
  Ge     Ge        0.681961189975056    0.371823406831405    0.391488734464521  0.0000
  Ge     Ge        0.617988636525131    0.775777617376194    0.383418833497290  0.0000
  Ge     Ge        0.861653217400164    0.065159086613190    0.325943910926801  0.0000
  Ge     Ge        0.102773703237702    0.975242077836882    0.634520524846983  0.0000
  Ge     Ge        0.074370739658271    0.003584263433212    0.147731663152577  0.0000
  Si     Si        0.657731255615905    0.731589847549285    0.709120957832148  0.0000
  Si     Si        0.272908113977263    0.691786347160101    0.314898122734566  0.0000
  Si     Si        0.312971946911035    0.664171649534859    0.634444228911335  0.0000
  Si     Si        0.899461904807418    0.007882527711009    0.832611285454377  0.0000
  O1     O1        0.259639627697528    0.251878613929449    0.452668478400784  0.0000
  O1     O1        0.762954670479639    0.355700569870656    0.568062037429800  0.0000
  O3     O3        0.680905962745404    0.756352156660210    0.561521235756724  0.0000
  O2     O2        0.282124839174453    0.637542443552732    0.471977897666250  0.0000
  O3     O3        0.274807353677385    0.510963883877703    0.248133950753978  0.0000
  O3     O3        0.705956516623354    0.539171440066078    0.772193865470316  0.0000
  O1     O1        0.506362173032963    0.268384422261371    0.348965796150518  0.0000
  O1     O1        0.531040338842119    0.241698105571611    0.670614481640286  0.0000
  O2     O2        0.478921615724127    0.759090045715668    0.693576881829399  0.0000
  O3     O3        0.422095981982802    0.807718668843593    0.320087201337317  0.0000
  O1     O1        0.211405511116079    0.161573817669823    0.185782898980917  0.0000
  O3     O3        0.838576193242770    0.200464491771310    0.831538227334393  0.0000
  O2     O2        0.756604762162382    0.872831999933133    0.811265361845253  0.0000
  O3     O3        0.127675794570313    0.804944645438098    0.235486547608177  0.0000
  O3     O3        0.315207395016945    0.469556146960268    0.693487229062868  0.0000
  O1     O1        0.659711554449359    0.582605093663745    0.330843424549876  0.0000
  O1     O1        0.242641605845087    0.125152106398767    0.698986398608409  0.0000
  O1     O1        0.808934741105028    0.274132390662094    0.331314479965669  0.0000
  O1     O1        0.702458735401350    0.942598576767824    0.322682594298719  0.0000
  O3     O3        0.186871143328248    0.771817257398256    0.666292763725972  0.0000
  O1     O1        0.019283859396926    0.998692394405784    0.459872564421293  0.0000
  O1     O1        0.911907058761321    0.057018080525966    0.180322812654950  0.0000
  O3     O3        0.959492730921353    0.985471422125469    0.704779509086524  0.0000
  O3     O3        0.031487825775984    0.966919496072426    0.974135093065021  0.0000
