data_c00060.vasp
_audit_creation_method             Generated by GULP
_audit_author_name                 Salvador R. G. Balestra
_symmetry_space_group_name_H-M     'P 1             '
_symmetry_Int_Tables_number        1

loop_
_symmetry_equiv_pos_site_id
_symmetry_equiv_pos_as_xyz
_cell_length_a                        9.0974
_cell_length_b                        7.7938
_cell_length_c                       10.2795
_cell_angle_alpha                   87.2958
_cell_angle_beta                   107.6661
_cell_angle_gamma                   92.1522

loop_
_atom_site_label
_atom_site_type_symbol
_atom_site_fract_x
_atom_site_fract_y
_atom_site_fract_z
_atom_site_charge
  Ge     Ge        0.313819999999964    0.296860000000038    0.309830000000034  0.0000
  Ge     Ge        0.691219430031827    0.335753574006616    0.711323412753212  0.0000
  Ge     Ge        0.654848063047083    0.741133450503034    0.706543775346758  0.0000
  Ge     Ge        0.684882834566023    0.362351601663605    0.392723071894291  0.0000
  Ge     Ge        0.631247564227261    0.764678558371859    0.386516051881741  0.0000
  Ge     Ge        0.287097552340494    0.667383771514653    0.621170318164696  0.0000
  Ge     Ge        0.868136607376533    0.052649430347496    0.328035104320449  0.0000
  Ge     Ge        0.090010573852288    0.977266861231672    0.640966415409353  0.0000
  Si     Si        0.267649185397566    0.693193372561522    0.311258597385588  0.0000
  Si     Si        0.329116650787198    0.269075832259948    0.620782528044903  0.0000
  Si     Si        0.084132462117721    0.005212737588437    0.145609503640642  0.0000
  Si     Si        0.889428868149592    0.025654074733455    0.844454916642357  0.0000
  O3     O3        0.257782602251774    0.265663498731881    0.456041732518625  0.0000
  O1     O1        0.750451512557508    0.359366561929930    0.568497154709116  0.0000
  O1     O1        0.711609679416770    0.768537767004943    0.561542402135682  0.0000
  O3     O3        0.211980460256787    0.666264381218409    0.444285608122829  0.0000
  O3     O3        0.277372616834495    0.509056226641700    0.250620043782696  0.0000
  O1     O1        0.684313657807635    0.533167822284869    0.772032658100703  0.0000
  O1     O1        0.505205471222879    0.261975704496796    0.341795575484704  0.0000
  O3     O3        0.510156961326605    0.234651812913636    0.659016701147562  0.0000
  O1     O1        0.461571516390703    0.775700718201254    0.667149868371703  0.0000
  O3     O3        0.435336098633470    0.785303160945051    0.355588629401802  0.0000
  O3     O3        0.211506286015505    0.155387493720675    0.190439888651956  0.0000
  O3     O3        0.813021187165817    0.208916640429790    0.837318906737561  0.0000
  O3     O3        0.759958395707886    0.876764538997399    0.830955829050712  0.0000
  O2     O2        0.150400846444547    0.818232717906644    0.202051036445872  0.0000
  O3     O3        0.309230455895006    0.455002272717474    0.676054604332498  0.0000
  O1     O1        0.668267101057677    0.570975494343799    0.331633614421531  0.0000
  O3     O3        0.240045925571208    0.128538255231729    0.687730532083239  0.0000
  O1     O1        0.817262967479653    0.260002767959374    0.338899728185318  0.0000
  O1     O1        0.702839265914967    0.928349704979834    0.307269387725444  0.0000
  O1     O1        0.165397222879591    0.775539463187270    0.684273450631079  0.0000
  O1     O1        0.010715956953530    0.980892351299950    0.467227013506877  0.0000
  O3     O3        0.933725240953855    0.043229741035435    0.187743940290132  0.0000
  O3     O3        0.949870509721394    0.017869265716290    0.712922202060694  0.0000
  O2     O2        0.032350795056811    0.999962508581700    0.980691336777479  0.0000
