data_c00017.vasp
_audit_creation_method             Generated by GULP
_audit_author_name                 Salvador R. G. Balestra
_symmetry_space_group_name_H-M     'P 1             '
_symmetry_Int_Tables_number        1

loop_
_symmetry_equiv_pos_site_id
_symmetry_equiv_pos_as_xyz
_cell_length_a                        9.0097
_cell_length_b                        7.7258
_cell_length_c                       10.2211
_cell_angle_alpha                   90.0936
_cell_angle_beta                   105.4873
_cell_angle_gamma                   88.2235

loop_
_atom_site_label
_atom_site_type_symbol
_atom_site_fract_x
_atom_site_fract_y
_atom_site_fract_z
_atom_site_charge
  Ge     Ge        0.313819999999964    0.296860000000038    0.309830000000034  0.0000
  Ge     Ge        0.672822527063600    0.209389117885255    0.716887984097588  0.0000
  Ge     Ge        0.725069648870733    0.621682766046238    0.731550049804702  0.0000
  Ge     Ge        0.360129719542030    0.696677610563236    0.329622823037810  0.0000
  Ge     Ge        0.311253360745938    0.297043097899905    0.631785671837116  0.0000
  Ge     Ge        0.360757597132732    0.703806851093875    0.644556064534365  0.0000
  Ge     Ge        0.101753409090224    0.988844756502499    0.648937614221231  0.0000
  Ge     Ge        0.114794298287248    0.984177864671760    0.158018595618993  0.0000
  Si     Si        0.676475955006680    0.225165010869956    0.405372890005751  0.0000
  Si     Si        0.724684044672975    0.621291067245465    0.426573843488248  0.0000
  Si     Si        0.899220329849752    0.930072719162219    0.349555560943867  0.0000
  Si     Si        0.908634722568196    0.929025089365184    0.859393133423953  0.0000
  O1     O1        0.261299537575622    0.314488525507727    0.457789863382230  0.0000
  O3     O3        0.729851936235511    0.200431841450845    0.567090934877732  0.0000
  O3     O3        0.794226414597618    0.612184910045971    0.587693768833717  0.0000
  O1     O1        0.292227318040899    0.714070191597348    0.470277596301746  0.0000
  O1     O1        0.322247211897062    0.501560854812035    0.249940278894702  0.0000
  O1     O1        0.705079757299151    0.416482324916022    0.781027467652080  0.0000
  O3     O3        0.496316064915900    0.195381738275891    0.346247016542847  0.0000
  O1     O1        0.480656091906226    0.172823966773954    0.677941942964698  0.0000
  O1     O1        0.554383100381001    0.740133191488612    0.693070519420888  0.0000
  O3     O3        0.557578767043572    0.712722703833852    0.390998416182024  0.0000
  O1     O1        0.175397571592263    0.189985922025567    0.193818912065685  0.0000
  O3     O3        0.769444153370230    0.069723678446806    0.845171627712483  0.0000
  O3     O3        0.851646009650481    0.734547078691964    0.858845953303661  0.0000
  O1     O1        0.277180714795927    0.856747391421049    0.217342136469611  0.0000
  O1     O1        0.340504809144031    0.497229546857200    0.700752573677545  0.0000
  O2     O2        0.713388614017561    0.423327363320251    0.369185945415079  0.0000
  O1     O1        0.170623109033647    0.193435991142499    0.681213713820314  0.0000
  O2     O2        0.771028492216230    0.085252580979204    0.339156758031520  0.0000
  O2     O2        0.832744714527762    0.739384533502410    0.361822982331468  0.0000
  O1     O1        0.253990573067349    0.845791340327470    0.712065967399679  0.0000
  O3     O3        0.045180127986630    0.964146496073847    0.473928394260425  0.0000
  O3     O3        0.958009912534317    0.929274708660502    0.215081944700583  0.0000
  O3     O3        0.952048900978108    0.957660353947303    0.716905352642177  0.0000
  O3     O3        0.053441693380839    0.963122225843272    0.983211136393800  0.0000
