data_c00059.vasp
_audit_creation_method             Generated by GULP
_audit_author_name                 Salvador R. G. Balestra
_symmetry_space_group_name_H-M     'P 1             '
_symmetry_Int_Tables_number        1

loop_
_symmetry_equiv_pos_site_id
_symmetry_equiv_pos_as_xyz
_cell_length_a                        9.3602
_cell_length_b                        7.7128
_cell_length_c                       10.4033
_cell_angle_alpha                   84.7001
_cell_angle_beta                   109.6856
_cell_angle_gamma                   90.4337

loop_
_atom_site_label
_atom_site_type_symbol
_atom_site_fract_x
_atom_site_fract_y
_atom_site_fract_z
_atom_site_charge
  Ge     Ge        0.313819999999964    0.296860000000038    0.309830000000034  0.0000
  Ge     Ge        0.723534292017986    0.266887763151514    0.704575859670223  0.0000
  Ge     Ge        0.672632483621583    0.690933408139101    0.709103358916321  0.0000
  Ge     Ge        0.359481552085429    0.218666025009854    0.633119952487164  0.0000
  Ge     Ge        0.861767784529775    0.036956166357959    0.334309964080952  0.0000
  Ge     Ge        0.123602751091868    0.924470336724515    0.637918583724432  0.0000
  Ge     Ge        0.095207036790137    0.995849402320130    0.174913279481504  0.0000
  Ge     Ge        0.938574687157824    0.939774795644815    0.856381877407361  0.0000
  Si     Si        0.314611236889294    0.679813526300842    0.329669193744463  0.0000
  Si     Si        0.678289270335046    0.329143817935057    0.392668200529044  0.0000
  Si     Si        0.649213264652155    0.736677107782129    0.396095970293258  0.0000
  Si     Si        0.338270597156114    0.612271400415348    0.634246359641661  0.0000
  O1     O1        0.282503260441544    0.217059356090875    0.457162947490464  0.0000
  O3     O3        0.750431143932815    0.248638360055579    0.549252764516377  0.0000
  O3     O3        0.687151726744303    0.776954098548229    0.552929807956585  0.0000
  O2     O2        0.366277391990257    0.586996839083832    0.488006764202090  0.0000
  O3     O3        0.258974164321678    0.513915620667706    0.246807373533277  0.0000
  O1     O1        0.728467149680225    0.476137288155754    0.744168539137882  0.0000
  O3     O3        0.503772993151362    0.279573046542456    0.332672075767872  0.0000
  O1     O1        0.551095316532578    0.176331406826579    0.690844753537633  0.0000
  O3     O3        0.490026304045073    0.707175129737905    0.717048531648618  0.0000
  O2     O2        0.468065529648833    0.764043783981596    0.312449500323093  0.0000
  O1     O1        0.204082239119823    0.176061249025559    0.184893958579358  0.0000
  O1     O1        0.872905798522780    0.152507283262898    0.823362722698112  0.0000
  O1     O1        0.783249891025044    0.809902231539630    0.832585923700800  0.0000
  O3     O3        0.191738082117775    0.830561235009814    0.301256151042453  0.0000
  O3     O3        0.327662126672704    0.415313046073287    0.691739857715309  0.0000
  O2     O2        0.697615334121386    0.537627398899021    0.389554485971998  0.0000
  O1     O1        0.269436044938987    0.061904048678440    0.702664802236215  0.0000
  O3     O3        0.767817899321507    0.237321378766841    0.310201887694653  0.0000
  O3     O3        0.739463889480289    0.865236209116137    0.325522863789776  0.0000
  O3     O3        0.190029806209097    0.722423933505669    0.615930783430832  0.0000
  O1     O1        0.013055097819038    0.021335240351599    0.482039447703882  0.0000
  O1     O1        0.927099117782370    0.036460569869112    0.198980545316299  0.0000
  O1     O1        0.026649168401679    0.876505867447943    0.747563923513280  0.0000
  O1     O1        0.063008390230977    0.914814490820288    0.020498813413033  0.0000
