data_c00024.vasp
_audit_creation_method             Generated by GULP
_audit_author_name                 Salvador R. G. Balestra
_symmetry_space_group_name_H-M     'P 1             '
_symmetry_Int_Tables_number        1

loop_
_symmetry_equiv_pos_site_id
_symmetry_equiv_pos_as_xyz
_cell_length_a                        9.0958
_cell_length_b                        7.6927
_cell_length_c                       10.4527
_cell_angle_alpha                   90.5170
_cell_angle_beta                   106.1099
_cell_angle_gamma                   87.8058

loop_
_atom_site_label
_atom_site_type_symbol
_atom_site_fract_x
_atom_site_fract_y
_atom_site_fract_z
_atom_site_charge
  Ge     Ge        0.313819999999964    0.296860000000038    0.309830000000034  0.0000
  Ge     Ge        0.681814784065905    0.198508690404402    0.699937213986257  0.0000
  Ge     Ge        0.735040246902745    0.609051515260512    0.724340923835389  0.0000
  Ge     Ge        0.374351184790317    0.701727228977997    0.332409787758805  0.0000
  Ge     Ge        0.904530564671699    0.925332832483313    0.341201668060333  0.0000
  Ge     Ge        0.135103321976979    0.980972939615841    0.635314351098340  0.0000
  Ge     Ge        0.122580952939820    0.984580396819607    0.154713509162489  0.0000
  Ge     Ge        0.934558902670090    0.920091910323958    0.847021070547741  0.0000
  Si     Si        0.326751032166264    0.291379474260307    0.615832016300635  0.0000
  Si     Si        0.672682743687455    0.215781165446562    0.396058484107123  0.0000
  Si     Si        0.730033323865985    0.617643991982046    0.420244399808049  0.0000
  Si     Si        0.378122265467843    0.687620220581952    0.637419537043674  0.0000
  O3     O3        0.262426667877794    0.302400176247914    0.456978978347432  0.0000
  O3     O3        0.735344585788736    0.175817884817704    0.552923514468735  0.0000
  O3     O3        0.791748813243066    0.620185025018915    0.579023401304227  0.0000
  O3     O3        0.320755285757073    0.714785799284082    0.478533335476184  0.0000
  O1     O1        0.323169618990200    0.504962335193158    0.258222037446657  0.0000
  O1     O1        0.728967671158412    0.400199663400542    0.769026884120816  0.0000
  O3     O3        0.492444054023190    0.190638273984497    0.340364701168784  0.0000
  O3     O3        0.486426613747425    0.180439702157861    0.653860933063274  0.0000
  O3     O3        0.557526177306529    0.719109793699177    0.693112329329606  0.0000
  O3     O3        0.569295393241931    0.724521050965333    0.372117973936247  0.0000
  O1     O1        0.173135505386526    0.195201425597831    0.194726012794908  0.0000
  O1     O1        0.772092613359793    0.054697416204561    0.820055436959426  0.0000
  O1     O1        0.869438179043590    0.713444907447133    0.844174612525266  0.0000
  O1     O1        0.285947794142944    0.863191628012296    0.227018260588377  0.0000
  O2     O2        0.354788080504154    0.486619121205212    0.674318805298081  0.0000
  O2     O2        0.703919303883803    0.418218402092231    0.370631618251570  0.0000
  O3     O3        0.211797896679928    0.186026932177824    0.673745592833120  0.0000
  O3     O3        0.761629742001314    0.086022328599308    0.320889842918965  0.0000
  O3     O3        0.847476229210576    0.716548286480345    0.360278273721161  0.0000
  O3     O3        0.276073961777693    0.818852259202400    0.698690170325552  0.0000
  O1     O1        0.064651467223164    0.970337420646903    0.465418293619095  0.0000
  O1     O1        0.964225839200023    0.923539089782874    0.198568267371027  0.0000
  O1     O1        0.991678679699051    0.960373855276552    0.706286443295439  0.0000
  O1     O1        0.078361479982443    0.962105146097312    0.984152249671578  0.0000
