data_c00007.vasp
_audit_creation_method             Generated by GULP
_audit_author_name                 Salvador R. G. Balestra
_symmetry_space_group_name_H-M     'P 1             '
_symmetry_Int_Tables_number        1

loop_
_symmetry_equiv_pos_site_id
_symmetry_equiv_pos_as_xyz
_cell_length_a                        9.0352
_cell_length_b                        7.7521
_cell_length_c                       10.3425
_cell_angle_alpha                   90.3609
_cell_angle_beta                   106.9802
_cell_angle_gamma                   88.2417

loop_
_atom_site_label
_atom_site_type_symbol
_atom_site_fract_x
_atom_site_fract_y
_atom_site_fract_z
_atom_site_charge
  Ge     Ge        0.313819999999964    0.296860000000038    0.309830000000034  0.0000
  Ge     Ge        0.706799283153622    0.210656675477860    0.712890402293318  0.0000
  Ge     Ge        0.740576311558229    0.613695635039262    0.731967352563918  0.0000
  Ge     Ge        0.386088131862384    0.696391632695972    0.330004974218681  0.0000
  Ge     Ge        0.333410177567578    0.289619434498583    0.625203362117147  0.0000
  Ge     Ge        0.685896046617598    0.213856594208444    0.397705024252972  0.0000
  Ge     Ge        0.922841293568937    0.918116100789751    0.352960042418207  0.0000
  Ge     Ge        0.133404878183818    0.977342484646643    0.154866957776349  0.0000
  Si     Si        0.741647998051812    0.608743511847472    0.421803180210725  0.0000
  Si     Si        0.381256019455682    0.686806346198525    0.638982282339696  0.0000
  Si     Si        0.144470702884136    0.979292380710397    0.648678255006971  0.0000
  Si     Si        0.947511417671380    0.921963439836289    0.847684383484028  0.0000
  O1     O1        0.256433911957092    0.305670750700077    0.454091436720030  0.0000
  O1     O1        0.763684945984000    0.185828882061195    0.569070167784701  0.0000
  O3     O3        0.783539837478421    0.576997460198476    0.581818545051799  0.0000
  O3     O3        0.330101781123693    0.692097006868599    0.476682910560833  0.0000
  O1     O1        0.334771354284407    0.500343216965778    0.254693736348771  0.0000
  O1     O1        0.738394054653261    0.409779534463585    0.790542376005920  0.0000
  O1     O1        0.490592729068613    0.187729721052095    0.349497776100331  0.0000
  O1     O1        0.510862718943519    0.185058299481414    0.663544392481240  0.0000
  O3     O3        0.562855256822438    0.723185341488712    0.697821355598922  0.0000
  O3     O3        0.583443042388677    0.723853236968936    0.373258210277374  0.0000
  O1     O1        0.174370074977296    0.189424468481275    0.190589628437590  0.0000
  O3     O3        0.808762981156255    0.061809348934053    0.832100576013038  0.0000
  O3     O3        0.877996537535581    0.733113587746270    0.843300972247248  0.0000
  O1     O1        0.302731017479289    0.862282293934853    0.226890511790228  0.0000
  O3     O3        0.354007563918620    0.497228903731802    0.690076623925221  0.0000
  O3     O3        0.717743641310767    0.422848265348317    0.351655058115320  0.0000
  O3     O3        0.217383316559145    0.164619889334146    0.692561387173436  0.0000
  O1     O1        0.773384880472967    0.066938160320045    0.317766216995362  0.0000
  O3     O3        0.874151576957088    0.712079392376457    0.385459765941146  0.0000
  O2     O2        0.279872912446335    0.829912044212482    0.692091234477245  0.0000
  O3     O3        0.073956914749957    0.984074608723057    0.487385127443154  0.0000
  O1     O1        0.989164208958720    0.903492555186663    0.214002934151382  0.0000
  O2     O2        0.011345787596817    0.941068058394678    0.717423403260372  0.0000
  O3     O3        0.084200261290446    0.948389611594687    0.981841728512746  0.0000
