data_c00021.vasp
_audit_creation_method             Generated by GULP
_audit_author_name                 Salvador R. G. Balestra
_symmetry_space_group_name_H-M     'P 1             '
_symmetry_Int_Tables_number        1

loop_
_symmetry_equiv_pos_site_id
_symmetry_equiv_pos_as_xyz
_cell_length_a                        9.1507
_cell_length_b                        7.7012
_cell_length_c                       10.2465
_cell_angle_alpha                   89.8144
_cell_angle_beta                   106.8245
_cell_angle_gamma                   90.7258

loop_
_atom_site_label
_atom_site_type_symbol
_atom_site_fract_x
_atom_site_fract_y
_atom_site_fract_z
_atom_site_charge
  Ge     Ge        0.313819999999964    0.296860000000038    0.309830000000034  0.0000
  Ge     Ge        0.703248521846527    0.375466359828707    0.707441549643253  0.0000
  Ge     Ge        0.636908624087075    0.786149084882889    0.690773148944607  0.0000
  Ge     Ge        0.283707735112155    0.698115120229381    0.284940875293645  0.0000
  Ge     Ge        0.338338724388680    0.300927508764069    0.629092911642192  0.0000
  Ge     Ge        0.868139325994746    0.067440677831319    0.375184163893319  0.0000
  Ge     Ge        0.102290849361003    0.007630327938117    0.672485321521036  0.0000
  Ge     Ge        0.893564343240227    0.059133831650569    0.867822456188034  0.0000
  Si     Si        0.671097414131151    0.376196567285465    0.393347488581533  0.0000
  Si     Si        0.629833224576817    0.776973458441427    0.375289685832976  0.0000
  Si     Si        0.290143959543404    0.697419368031454    0.603771088789943  0.0000
  Si     Si        0.076826639218327    0.012721929515478    0.177879954557892  0.0000
  O1     O1        0.261386090149931    0.268655064880936    0.456654848455814  0.0000
  O3     O3        0.748043429674710    0.384947329177378    0.554692361556238  0.0000
  O3     O3        0.679899899321606    0.808641617108702    0.537379003161441  0.0000
  O3     O3        0.271406187894302    0.651053449914851    0.446784925504403  0.0000
  O1     O1        0.275059112832409    0.491797747666370    0.224049908029015  0.0000
  O1     O1        0.688486987262527    0.584570270750239    0.758196428450564  0.0000
  O3     O3        0.510018033524992    0.275203547636919    0.362844816100548  0.0000
  O1     O1        0.531101687229020    0.268342242736036    0.682649253421660  0.0000
  O3     O3        0.442586816231312    0.814055347871478    0.661610624656802  0.0000
  O3     O3        0.452040624640713    0.816273889305730    0.306826779782551  0.0000
  O3     O3        0.219728156691681    0.142497607808001    0.192289607592066  0.0000
  O1     O1        0.849023833906440    0.271066303267040    0.822060643362897  0.0000
  O1     O1        0.728434455750988    0.941729073492571    0.801501249147987  0.0000
  O3     O3        0.136575090183321    0.816259609257407    0.183445108210390  0.0000
  O3     O3        0.306698954441436    0.511523842732047    0.677099371821496  0.0000
  O2     O2        0.644498028825713    0.573526673455020    0.337693620894728  0.0000
  O1     O1        0.247027357093213    0.157136725368683    0.707797828984185  0.0000
  O3     O3        0.777512880818918    0.265120941597087    0.326494681434017  0.0000
  O3     O3        0.737376073102898    0.898565916484338    0.316014697280409  0.0000
  O3     O3        0.150539216877119    0.805792599442190    0.622722672559009  0.0000
  O1     O1        0.941924364528771    0.071060423674442    0.548401821767348  0.0000
  O3     O3        0.018380451677850    0.045266795765689    0.309542652858764  0.0000
  O1     O1        0.042205779691493    0.982896353714274    0.816110848989779  0.0000
  O3     O3        0.940678998354051    0.044757238260402    0.043910379374321  0.0000
