data_c00039.vasp
_audit_creation_method             Generated by GULP
_audit_author_name                 Salvador R. G. Balestra
_symmetry_space_group_name_H-M     'P 1             '
_symmetry_Int_Tables_number        1

loop_
_symmetry_equiv_pos_site_id
_symmetry_equiv_pos_as_xyz
_cell_length_a                        8.9964
_cell_length_b                        7.7951
_cell_length_c                       10.0366
_cell_angle_alpha                   87.4648
_cell_angle_beta                   104.5642
_cell_angle_gamma                   92.0973

loop_
_atom_site_label
_atom_site_type_symbol
_atom_site_fract_x
_atom_site_fract_y
_atom_site_fract_z
_atom_site_charge
  Ge     Ge        0.313819999999964    0.296860000000038    0.309830000000034  0.0000
  Ge     Ge        0.684174857253134    0.325233217989130    0.723197344019952  0.0000
  Ge     Ge        0.635533461336405    0.735354563861936    0.716972847733717  0.0000
  Ge     Ge        0.319691587690264    0.251787904283639    0.632584871426510  0.0000
  Ge     Ge        0.690154942622811    0.344310947915965    0.403513983437512  0.0000
  Ge     Ge        0.276514219193999    0.656193245716926    0.629980673513354  0.0000
  Ge     Ge        0.065777126176089    0.961929475808992    0.643180312853628  0.0000
  Ge     Ge        0.872308458397334    0.013487247918432    0.867515364435478  0.0000
  Si     Si        0.291870143948456    0.687179073532793    0.316315812817646  0.0000
  Si     Si        0.651244830657105    0.742386911451935    0.403868081251035  0.0000
  Si     Si        0.872493384688985    0.036024860304720    0.337950334666860  0.0000
  Si     Si        0.097947691011580    0.998313869518475    0.156237956537123  0.0000
  O1     O1        0.252064283817260    0.258156226907465    0.455317754543071  0.0000
  O1     O1        0.756332199514928    0.333634541848534    0.579082910018324  0.0000
  O3     O3        0.704624334636347    0.752428854228431    0.568644981086094  0.0000
  O3     O3        0.233109550297821    0.645810384123487    0.451367319990791  0.0000
  O3     O3        0.287120583714899    0.507531349368332    0.243597190166315  0.0000
  O1     O1        0.656413618068871    0.523491243142424    0.773519265236774  0.0000
  O1     O1        0.507303894150149    0.262702266189780    0.347576033802902  0.0000
  O1     O1        0.511877627004017    0.211916402615975    0.673336349341740  0.0000
  O1     O1        0.444044280731100    0.777069670598181    0.678293641660676  0.0000
  O2     O2        0.466917137862255    0.763115070208136    0.359308471740609  0.0000
  O3     O3        0.209827484452093    0.162580485703510    0.185149289599736  0.0000
  O1     O1        0.801278332760092    0.214501845492141    0.859384354045934  0.0000
  O1     O1        0.729706201007381    0.857853610491437    0.850697572545341  0.0000
  O2     O2        0.186614970412038    0.827064370439161    0.218973801925826  0.0000
  O1     O1        0.297048819246569    0.450889971707488    0.694225817374403  0.0000
  O3     O3        0.694140267109976    0.561736316657812    0.355002080686797  0.0000
  O1     O1        0.217812224396424    0.102603423250895    0.703536833780705  0.0000
  O3     O3        0.810856536314293    0.226932181216103    0.334818326966576  0.0000
  O2     O2        0.731339014002983    0.899132124480486    0.335121487140442  0.0000
  O1     O1        0.132688481924288    0.756236467245750    0.675584448129407  0.0000
  O3     O3        0.013292644400115    0.997883035961252    0.465876223040890  0.0000
  O2     O2        0.938437159654218    0.018160584509935    0.202708371907206  0.0000
  O1     O1        0.917046277686172    0.992904376088984    0.710579144004387  0.0000
  O3     O3        0.038110970605839    0.978628709183125    0.993040457382859  0.0000
