data_c00088.vasp
_audit_creation_method             Generated by GULP
_audit_author_name                 Salvador R. G. Balestra
_symmetry_space_group_name_H-M     'P 1             '
_symmetry_Int_Tables_number        1

loop_
_symmetry_equiv_pos_site_id
_symmetry_equiv_pos_as_xyz
_cell_length_a                        9.2419
_cell_length_b                        7.7104
_cell_length_c                       10.1659
_cell_angle_alpha                   89.0633
_cell_angle_beta                   108.8035
_cell_angle_gamma                   86.6337

loop_
_atom_site_label
_atom_site_type_symbol
_atom_site_fract_x
_atom_site_fract_y
_atom_site_fract_z
_atom_site_charge
  Ge     Ge        0.313819999999964    0.296860000000038    0.309830000000034  0.0000
  Ge     Ge        0.716836899035870    0.200688221375899    0.721497373180863  0.0000
  Ge     Ge        0.350657884926613    0.280278195647293    0.646358442227021  0.0000
  Ge     Ge        0.682289474148101    0.215231001035063    0.395669515055338  0.0000
  Ge     Ge        0.732211221013866    0.626529386148044    0.419140858548080  0.0000
  Ge     Ge        0.157047424525252    0.964119670171714    0.636006523317334  0.0000
  Ge     Ge        0.133431393419369    0.972151632802816    0.177067862454962  0.0000
  Ge     Ge        0.973198514622446    0.889393299811894    0.859494846706114  0.0000
  Si     Si        0.756191074654017    0.607719219380268    0.733164757453769  0.0000
  Si     Si        0.381861023159021    0.673570621258970    0.332940728492982  0.0000
  Si     Si        0.412201258366889    0.658317497926912    0.648709875764660  0.0000
  Si     Si        0.905188798058661    0.926360190501073    0.336460953014269  0.0000
  O1     O1        0.309840161604123    0.242621560051209    0.472246588873436  0.0000
  O1     O1        0.706793384928931    0.130581273955007    0.559441459317679  0.0000
  O3     O3        0.758348370921705    0.691527511282388    0.586812405493811  0.0000
  O2     O2        0.427663483772163    0.610182434747411    0.497336792773832  0.0000
  O3     O3        0.281429879196033    0.518056976320324    0.258492180725242  0.0000
  O3     O3        0.792420892111166    0.403558112280556    0.737122144594340  0.0000
  O1     O1        0.494085483060909    0.247093513118213    0.300450240921438  0.0000
  O1     O1        0.538545487178357    0.215647518360689    0.737084712330789  0.0000
  O2     O2        0.588077581639341    0.652065429657791    0.750811081003175  0.0000
  O3     O3        0.545504118870057    0.681208320609987    0.310527125687264  0.0000
  O1     O1        0.176840289839720    0.184966214105873    0.193480393495451  0.0000
  O1     O1        0.845266244373601    0.065700227859979    0.843694568983673  0.0000
  O3     O3        0.879325821759381    0.700041357579827    0.854240744414191  0.0000
  O3     O3        0.290022149308652    0.857602436546197    0.297536469703574  0.0000
  O3     O3        0.324511636609249    0.498012429116226    0.682540718265389  0.0000
  O1     O1        0.770642566889488    0.408228958108297    0.410931094376756  0.0000
  O1     O1        0.223914005173756    0.161244865027284    0.694721683184137  0.0000
  O3     O3        0.760468164212592    0.061374884167176    0.312121920729989  0.0000
  O3     O3        0.862218149697553    0.733390736688139    0.363163249981984  0.0000
  O3     O3        0.326301559101547    0.839473119845096    0.652059221748911  0.0000
  O3     O3        0.048276739269213    0.985802127049231    0.463449972141033  0.0000
  O3     O3        0.962681791515368    0.931560992534834    0.203538517125351  0.0000
  O1     O1        0.055086293297525    0.881534068213106    0.729783002752276  0.0000
  O1     O1        0.116433637953663    0.902596758963442    0.014325864747058  0.0000
