data_c00075.vasp
_audit_creation_method             Generated by GULP
_audit_author_name                 Salvador R. G. Balestra
_symmetry_space_group_name_H-M     'P 1             '
_symmetry_Int_Tables_number        1

loop_
_symmetry_equiv_pos_site_id
_symmetry_equiv_pos_as_xyz
_cell_length_a                        9.1385
_cell_length_b                        7.7659
_cell_length_c                       10.3021
_cell_angle_alpha                   90.6167
_cell_angle_beta                   108.3935
_cell_angle_gamma                   86.8121

loop_
_atom_site_label
_atom_site_type_symbol
_atom_site_fract_x
_atom_site_fract_y
_atom_site_fract_z
_atom_site_charge
  Ge     Ge        0.313819999999964    0.296860000000038    0.309830000000034  0.0000
  Ge     Ge        0.700094340673328    0.216056199592520    0.704813294485162  0.0000
  Ge     Ge        0.756889657989683    0.618361034732189    0.722267549569412  0.0000
  Ge     Ge        0.723203489950254    0.611248003645309    0.398193028152986  0.0000
  Ge     Ge        0.390531996492487    0.687682534063413    0.641328076586116  0.0000
  Ge     Ge        0.902805301884570    0.922117629495919    0.331698348741506  0.0000
  Ge     Ge        0.142611871038867    0.991950106554815    0.638880101784262  0.0000
  Ge     Ge        0.121744607339116    0.984251053770518    0.150257239224862  0.0000
  Si     Si        0.367199112419806    0.691365155437155    0.325323108918914  0.0000
  Si     Si        0.339130560078505    0.294470589930645    0.623456666071037  0.0000
  Si     Si        0.671268303229287    0.215748817670832    0.387795060065910  0.0000
  Si     Si        0.944652212064369    0.931020365656092    0.838742593745594  0.0000
  O3     O3        0.318619758678513    0.228546388077140    0.470031119158603  0.0000
  O3     O3        0.678548082779443    0.155408747471892    0.538513090573619  0.0000
  O1     O1        0.753722299536491    0.680559751011196    0.562216809987361  0.0000
  O3     O3        0.394347472464514    0.748317394383834    0.481221011868632  0.0000
  O3     O3        0.272777579943541    0.517865341423399    0.294574053973097  0.0000
  O1     O1        0.798893983173242    0.401090000231878    0.744985103066742  0.0000
  O3     O3        0.495515759000226    0.252766990053920    0.294473258210799  0.0000
  O3     O3        0.516731446530819    0.259638761614511    0.715896533525481  0.0000
  O1     O1        0.578517766140756    0.663254411260497    0.742419675419756  0.0000
  O3     O3        0.531584088553159    0.651730860608804    0.302761980045380  0.0000
  O1     O1        0.175333227777458    0.192028184988415    0.190828475900691  0.0000
  O3     O3        0.789764706832066    0.053702158345768    0.819251345729495  0.0000
  O3     O3        0.898787428784637    0.734265093567408    0.835637423853714  0.0000
  O3     O3        0.278197187507949    0.845946693582438    0.226662750604261  0.0000
  O3     O3        0.296673944140634    0.496706960223841    0.624647303625432  0.0000
  O3     O3        0.763165385013649    0.390077720881442    0.400707050169385  0.0000
  O3     O3        0.223434221324276    0.190093490866114    0.677045963952510  0.0000
  O3     O3        0.748716000810687    0.065937505572279    0.320302317519255  0.0000
  O1     O1        0.843672645766519    0.716288100539241    0.333339652439901  0.0000
  O1     O1        0.287976110977645    0.836473824538107    0.704264628088589  0.0000
  O1     O1        0.064301386968082    0.959370306850947    0.466234487332168  0.0000
  O1     O1        0.959591174236816    0.941763071082549    0.188957847875541  0.0000
  O3     O3        0.995954770316441    0.983187651809155    0.708368353983909  0.0000
  O3     O3        0.080964852625654    0.965610764092135    0.974794326820398  0.0000
