data_c00072.vasp
_audit_creation_method             Generated by GULP
_audit_author_name                 Salvador R. G. Balestra
_symmetry_space_group_name_H-M     'P 1             '
_symmetry_Int_Tables_number        1

loop_
_symmetry_equiv_pos_site_id
_symmetry_equiv_pos_as_xyz
_cell_length_a                        9.1332
_cell_length_b                        7.8244
_cell_length_c                       10.2105
_cell_angle_alpha                   88.5441
_cell_angle_beta                   105.7170
_cell_angle_gamma                   89.6253

loop_
_atom_site_label
_atom_site_type_symbol
_atom_site_fract_x
_atom_site_fract_y
_atom_site_fract_z
_atom_site_charge
  Ge     Ge        0.313819999999964    0.296860000000038    0.309830000000034  0.0000
  Ge     Ge        0.676214782203702    0.218934836648541    0.714406736035808  0.0000
  Ge     Ge        0.716777720035035    0.620940138273453    0.729311944758012  0.0000
  Ge     Ge        0.678819982761326    0.239542701720140    0.398765196761327  0.0000
  Ge     Ge        0.353523934828794    0.679315269994551    0.638690662635146  0.0000
  Ge     Ge        0.914786869415548    0.942985545553155    0.402127038333971  0.0000
  Ge     Ge        0.124448808604028    0.977550817372610    0.194120300876182  0.0000
  Ge     Ge        0.917710792176839    0.928291466939353    0.884805700583579  0.0000
  Si     Si        0.355539916709235    0.691934662477784    0.328500104838485  0.0000
  Si     Si        0.316521822105181    0.278354238276864    0.619893630589884  0.0000
  Si     Si        0.707278849236536    0.632250781286939    0.413675133941793  0.0000
  Si     Si        0.130962541727855    0.972994081688429    0.696542608657475  0.0000
  O3     O3        0.254332045196771    0.293348676535573    0.457471187960464  0.0000
  O1     O1        0.740340153733458    0.206806603531423    0.572264920024397  0.0000
  O3     O3        0.762351345155841    0.606566290314791    0.576176461626125  0.0000
  O3     O3        0.296401975161255    0.702078003588082    0.463428542283716  0.0000
  O3     O3        0.319374423247094    0.508033506903146    0.260376504196647  0.0000
  O1     O1        0.708988722338316    0.414878237945427    0.787233447914923  0.0000
  O1     O1        0.488933257277608    0.199287079020851    0.341357861370394  0.0000
  O3     O3        0.481585834855075    0.188872564869477    0.660468994528167  0.0000
  O1     O1        0.542329103770971    0.720710569247716    0.704918851294682  0.0000
  O2     O2        0.537630115872099    0.716698253361162    0.379205956606001  0.0000
  O1     O1        0.190270598909544    0.182036967592863    0.188844544880700  0.0000
  O1     O1        0.764520497455109    0.063748981946250    0.829059655647686  0.0000
  O1     O1        0.858092303892770    0.725865443431752    0.840617694303917  0.0000
  O3     O3        0.276740038334221    0.833835039271931    0.217152660621020  0.0000
  O3     O3        0.324733286849086    0.466609703006758    0.680671540160733  0.0000
  O3     O3        0.702243033531651    0.448754044449792    0.347993732090032  0.0000
  O2     O2        0.203317010800599    0.155854067566260    0.674783262810617  0.0000
  O1     O1        0.789761050686790    0.107374274338717    0.334721037886804  0.0000
  O3     O3        0.816202732795457    0.754244705598702    0.358524672502096  0.0000
  O3     O3        0.249173983575213    0.816784466971688    0.707752304316977  0.0000
  O3     O3        0.977538460105060    0.942891554005563    0.578463937794524  0.0000
  O1     O1        0.067961656856856    0.951570024163929    0.340942975677668  0.0000
  O3     O3        0.078521909006628    0.982023234258294    0.834039491498403  0.0000
  O1     O1        0.975822216761111    0.936130583742908    0.059438097878838  0.0000
