data_c00034.vasp
_audit_creation_method             Generated by GULP
_audit_author_name                 Salvador R. G. Balestra
_symmetry_space_group_name_H-M     'P 1             '
_symmetry_Int_Tables_number        1

loop_
_symmetry_equiv_pos_site_id
_symmetry_equiv_pos_as_xyz
_cell_length_a                        9.2174
_cell_length_b                        7.7633
_cell_length_c                       10.0993
_cell_angle_alpha                   87.5117
_cell_angle_beta                   108.4955
_cell_angle_gamma                   87.1317

loop_
_atom_site_label
_atom_site_type_symbol
_atom_site_fract_x
_atom_site_fract_y
_atom_site_fract_z
_atom_site_charge
  Ge     Ge        0.313819999999964    0.296860000000038    0.309830000000034  0.0000
  Ge     Ge        0.708433836415142    0.189280255208248    0.725816288627895  0.0000
  Ge     Ge        0.738057506848619    0.606149865026538    0.741024938049999  0.0000
  Ge     Ge        0.341299942582918    0.251794135682014    0.645325105602411  0.0000
  Ge     Ge        0.682431310486704    0.222971154238242    0.401238819462909  0.0000
  Ge     Ge        0.724959935779384    0.632154734632416    0.422603942273990  0.0000
  Ge     Ge        0.135779870046496    0.974312432887215    0.183084685713622  0.0000
  Ge     Ge        0.969464040155057    0.882032868982239    0.869741146457683  0.0000
  Si     Si        0.376073046800552    0.670866900633115    0.343045371548267  0.0000
  Si     Si        0.390396774310980    0.635264152628277    0.656977966879891  0.0000
  Si     Si        0.900380102542385    0.933701589553685    0.342722504320736  0.0000
  Si     Si        0.144576126733989    0.944031337938061    0.642388559485186  0.0000
  O1     O1        0.306336757736468    0.227891708252911    0.470949734114383  0.0000
  O1     O1        0.694036496148981    0.127705794825383    0.560996544257411  0.0000
  O1     O1        0.746407290577670    0.700490773968494    0.586090181900972  0.0000
  O2     O2        0.427742549040378    0.605061015857884    0.510231191074303  0.0000
  O3     O3        0.272736751580640    0.519283027688483    0.268910344411584  0.0000
  O1     O1        0.778718059898437    0.390330785153514    0.744984393175221  0.0000
  O1     O1        0.495234762671669    0.261510742880716    0.300632803722558  0.0000
  O1     O1        0.528234939060020    0.195058737054800    0.741437396360256  0.0000
  O3     O3        0.558798949663918    0.646667505258224    0.764698239054630  0.0000
  O3     O3        0.536238123103260    0.676910199828331    0.313397835207570  0.0000
  O1     O1        0.183445755454083    0.184560891453874    0.190283138922370  0.0000
  O1     O1        0.836488018186370    0.052732131487467    0.848610410775819  0.0000
  O1     O1        0.874318540150127    0.698457363842870    0.870114924869417  0.0000
  O3     O3        0.286250604121568    0.855248158010083    0.308168923578138  0.0000
  O3     O3        0.308043080432088    0.465796411111623    0.682498924089959  0.0000
  O1     O1        0.770681640870187    0.414981484123955    0.424171113082536  0.0000
  O3     O3        0.216548500153402    0.122647256078203    0.694955356850346  0.0000
  O3     O3        0.762379796088657    0.077273100167708    0.315821051516415  0.0000
  O3     O3        0.846679506735689    0.742828946505119    0.355514560022874  0.0000
  O2     O2        0.285938880858018    0.807736056141187    0.649535431880839  0.0000
  O2     O2        0.037310233291811    0.976883193011963    0.481802132239653  0.0000
  O3     O3        0.964170028506298    0.946913138361017    0.213159757036657  0.0000
  O3     O3        0.048188113064616    0.874805488742234    0.735060908312072  0.0000
  O1     O1        0.115582553592607    0.900042501725946    0.021822691883021  0.0000
