data_c00074.vasp
_audit_creation_method             Generated by GULP
_audit_author_name                 Salvador R. G. Balestra
_symmetry_space_group_name_H-M     'P 1             '
_symmetry_Int_Tables_number        1

loop_
_symmetry_equiv_pos_site_id
_symmetry_equiv_pos_as_xyz
_cell_length_a                        9.1823
_cell_length_b                        7.7733
_cell_length_c                       10.2854
_cell_angle_alpha                   89.9783
_cell_angle_beta                   107.5400
_cell_angle_gamma                   88.0879

loop_
_atom_site_label
_atom_site_type_symbol
_atom_site_fract_x
_atom_site_fract_y
_atom_site_fract_z
_atom_site_charge
  Ge     Ge        0.313819999999964    0.296860000000038    0.309830000000034  0.0000
  Ge     Ge        0.693567778037241    0.204300816736142    0.709236520628954  0.0000
  Ge     Ge        0.742096803244845    0.614922797363601    0.723607728192867  0.0000
  Ge     Ge        0.670246253350994    0.219148547453499    0.389561091117783  0.0000
  Ge     Ge        0.899712149757078    0.918012502041902    0.331613249252507  0.0000
  Ge     Ge        0.144597975252865    0.971700500771566    0.632563018698772  0.0000
  Ge     Ge        0.130286726295748    0.972684196109723    0.162019260798301  0.0000
  Ge     Ge        0.948142283894434    0.921753301349467    0.847875964931964  0.0000
  Si     Si        0.364640061704607    0.687223932455211    0.336934439278361  0.0000
  Si     Si        0.344828462665463    0.284619932428028    0.632575613828632  0.0000
  Si     Si        0.718120277372812    0.619466476176423    0.414576338154344  0.0000
  Si     Si        0.383682281408643    0.675365638024906    0.647149699123923  0.0000
  O3     O3        0.344031537058492    0.244738311645044    0.479037597935932  0.0000
  O1     O1        0.683617129452151    0.136455564022535    0.547727399127511  0.0000
  O3     O3        0.750836016945524    0.690418451232888    0.566697496945210  0.0000
  O2     O2        0.367481782591946    0.729891344228313    0.491245949934289  0.0000
  O3     O3        0.270686685062900    0.516723961988530    0.284624644231805  0.0000
  O1     O1        0.779250411424310    0.400290356040862    0.738338120302265  0.0000
  O1     O1        0.486469114624889    0.242722375412090    0.284994151822314  0.0000
  O3     O3        0.513095715457714    0.232637006110729    0.728198695983279  0.0000
  O3     O3        0.559702003421503    0.667021039048511    0.734285578757596  0.0000
  O2     O2        0.537040617801658    0.646176967712498    0.334002355276142  0.0000
  O1     O1        0.168822269472250    0.184123843181099    0.206826351505800  0.0000
  O1     O1        0.794577016359929    0.062693209336291    0.831567954000420  0.0000
  O1     O1        0.878295407403305    0.718780396488008    0.844576702468839  0.0000
  O3     O3        0.293940898835487    0.850782438137093    0.244688816864093  0.0000
  O2     O2        0.310803927002177    0.488285243438431    0.648158562336071  0.0000
  O3     O3        0.757260830958940    0.417548686912335    0.417062154705919  0.0000
  O3     O3        0.219715322402101    0.174664687352611    0.669444435712075  0.0000
  O1     O1        0.770113452039970    0.085047362585950    0.312959755305470  0.0000
  O3     O3        0.818418944128584    0.722834562813589    0.340804810272524  0.0000
  O3     O3        0.286985768815775    0.814999607812672    0.702456017423926  0.0000
  O1     O1        0.066249729138729    0.948254696604084    0.460716506556484  0.0000
  O1     O1        0.966645516961338    0.910842937662010    0.191813268019105  0.0000
  O1     O1        0.002147755045601    0.961222436769287    0.704343196381456  0.0000
  O1     O1        0.098336737994809    0.952396154685237    0.989416718237764  0.0000
