data_c00058.vasp
_audit_creation_method             Generated by GULP
_audit_author_name                 Salvador R. G. Balestra
_symmetry_space_group_name_H-M     'P 1             '
_symmetry_Int_Tables_number        1

loop_
_symmetry_equiv_pos_site_id
_symmetry_equiv_pos_as_xyz
_cell_length_a                        9.1156
_cell_length_b                        7.7511
_cell_length_c                       10.4116
_cell_angle_alpha                   89.6101
_cell_angle_beta                   106.9443
_cell_angle_gamma                   88.1342

loop_
_atom_site_label
_atom_site_type_symbol
_atom_site_fract_x
_atom_site_fract_y
_atom_site_fract_z
_atom_site_charge
  Ge     Ge        0.313819999999964    0.296860000000038    0.309830000000034  0.0000
  Ge     Ge        0.668734680641499    0.210090956265971    0.711658955930031  0.0000
  Ge     Ge        0.732800100041545    0.615771853091890    0.727124770515947  0.0000
  Ge     Ge        0.306879988037427    0.298493508606916    0.621649857843312  0.0000
  Ge     Ge        0.371400876696449    0.703943786422729    0.638105050361542  0.0000
  Ge     Ge        0.122628118551911    0.990377047183110    0.690351403256668  0.0000
  Ge     Ge        0.112490766804906    0.977204261028471    0.202459978162365  0.0000
  Ge     Ge        0.921566288951174    0.921372061215185    0.889913207862084  0.0000
  Si     Si        0.357843506744038    0.689442987312763    0.330808544544079  0.0000
  Si     Si        0.678315495103186    0.231276323836590    0.407084868523901  0.0000
  Si     Si        0.716700331871078    0.620270310328671    0.420879120509653  0.0000
  Si     Si        0.902061022932118    0.930944186496307    0.400035979267554  0.0000
  O1     O1        0.252886039466131    0.296872117133870    0.449758612117144  0.0000
  O3     O3        0.727587301379847    0.208658260703106    0.567266607393021  0.0000
  O3     O3        0.785395971595618    0.608590588249407    0.579741304470758  0.0000
  O3     O3        0.303326103088313    0.704342128265643    0.464020471083726  0.0000
  O3     O3        0.314941972341145    0.508100542775200    0.257229928079397  0.0000
  O1     O1        0.708062794335217    0.412385752284152    0.778340301187213  0.0000
  O3     O3        0.498421501496810    0.205104463689451    0.346300450115835  0.0000
  O1     O1        0.477380470867645    0.178252623316279    0.672802711865332  0.0000
  O1     O1        0.563780365455672    0.735920006950905    0.695225930445584  0.0000
  O2     O2        0.542954648828318    0.698933459062570    0.382255549450388  0.0000
  O1     O1        0.186124139049927    0.176776471087309    0.195062636878433  0.0000
  O1     O1        0.764528874351808    0.055779397535767    0.823469781588212  0.0000
  O1     O1        0.874893161573789    0.713173018468589    0.845112483839698  0.0000
  O3     O3        0.273899937921383    0.839158516561239    0.228545676984087  0.0000
  O1     O1        0.335407379592866    0.500172529276854    0.686486442411375  0.0000
  O2     O2        0.717355967165018    0.424834640682083    0.364971104754046  0.0000
  O1     O1        0.167757810283528    0.199829701670066    0.671795160240020  0.0000
  O2     O2        0.777349640833630    0.090723244481790    0.349663168997211  0.0000
  O2     O2        0.817211814841644    0.748058794181414    0.358670154575953  0.0000
  O1     O1        0.280790106463572    0.858532640939378    0.704147073338926  0.0000
  O3     O3        0.968328113343676    0.927139065455470    0.560809520599108  0.0000
  O3     O3        0.039874673035653    0.953535420236660    0.338152261716965  0.0000
  O1     O1        0.073382701483498    0.980582832700057    0.836675758251255  0.0000
  O1     O1        0.971482692754635    0.933270328892361    0.062025293817800  0.0000
