data_c00076.vasp
_audit_creation_method             Generated by GULP
_audit_author_name                 Salvador R. G. Balestra
_symmetry_space_group_name_H-M     'P 1             '
_symmetry_Int_Tables_number        1

loop_
_symmetry_equiv_pos_site_id
_symmetry_equiv_pos_as_xyz
_cell_length_a                        9.2045
_cell_length_b                        7.7964
_cell_length_c                       10.2992
_cell_angle_alpha                   89.2430
_cell_angle_beta                   108.4241
_cell_angle_gamma                   88.6098

loop_
_atom_site_label
_atom_site_type_symbol
_atom_site_fract_x
_atom_site_fract_y
_atom_site_fract_z
_atom_site_charge
  Ge     Ge        0.313819999999964    0.296860000000038    0.309830000000034  0.0000
  Ge     Ge        0.686784108283632    0.213318650666682    0.703360943893276  0.0000
  Ge     Ge        0.746586197445494    0.615154154845231    0.728268175216551  0.0000
  Ge     Ge        0.711517633422148    0.632443444712341    0.404376455313025  0.0000
  Ge     Ge        0.379787432868185    0.682359480107939    0.641525222934195  0.0000
  Ge     Ge        0.909317173335918    0.947402599706052    0.387105245264427  0.0000
  Ge     Ge        0.147189183942861    0.978937411701788    0.693822127838010  0.0000
  Ge     Ge        0.938687581725760    0.924215637032215    0.885738095677047  0.0000
  Si     Si        0.349856581748626    0.693583463659283    0.327266549662844  0.0000
  Si     Si        0.330062242978342    0.284315864301407    0.620329174368004  0.0000
  Si     Si        0.673392484099496    0.238408366268359    0.391328538137564  0.0000
  Si     Si        0.118506308114969    0.987030988866300    0.195406903652853  0.0000
  O3     O3        0.261233998307549    0.300422038264390    0.456199346771120  0.0000
  O3     O3        0.739615752439744    0.224176677086255    0.556162089155223  0.0000
  O1     O1        0.791115935594501    0.622481017063994    0.578497436679275  0.0000
  O3     O3        0.302742099741126    0.702926954686201    0.464904949149603  0.0000
  O3     O3        0.313438940109593    0.508236003433788    0.257712955737651  0.0000
  O1     O1        0.734057339422931    0.407318348569875    0.779791345934612  0.0000
  O3     O3        0.493731099065635    0.202486941764945    0.344365129340459  0.0000
  O3     O3        0.492282910422677    0.181095974086513    0.658978358780803  0.0000
  O1     O1        0.570712115819578    0.718884932777047    0.697899750233231  0.0000
  O3     O3        0.529178134760312    0.725713104681430    0.367616038970480  0.0000
  O3     O3        0.190223789995728    0.172247321176467    0.189328438514330  0.0000
  O1     O1        0.776272167325687    0.046257723513331    0.805744265678695  0.0000
  O1     O1        0.888683660872317    0.715806381243904    0.849895740383376  0.0000
  O2     O2        0.251673168909098    0.838224304731894    0.219294740446583  0.0000
  O3     O3        0.355092495177233    0.471050554517812    0.685087502184009  0.0000
  O3     O3        0.695964737402078    0.428874840088688    0.339700406919270  0.0000
  O3     O3        0.213456401382123    0.180308267445695    0.675251346105764  0.0000
  O3     O3        0.766246140147661    0.105177035148544    0.329564461502883  0.0000
  O1     O1        0.821049211570993    0.756148432882410    0.336917188760590  0.0000
  O1     O1        0.284949696494446    0.820077975442797    0.715167499136164  0.0000
  O1     O1        0.984573270056667    0.938834503272291    0.562147564621420  0.0000
  O3     O3        0.057656055191082    0.984126789634588    0.325424263678904  0.0000
  O1     O1        0.092209266679005    0.982999614679472    0.838575723582268  0.0000
  O3     O3        0.981517948105755    0.953864601656364    0.060460193305858  0.0000
