data_c00070.vasp
_audit_creation_method             Generated by GULP
_audit_author_name                 Salvador R. G. Balestra
_symmetry_space_group_name_H-M     'P 1             '
_symmetry_Int_Tables_number        1

loop_
_symmetry_equiv_pos_site_id
_symmetry_equiv_pos_as_xyz
_cell_length_a                        9.0174
_cell_length_b                        7.9065
_cell_length_c                       10.4622
_cell_angle_alpha                   86.9295
_cell_angle_beta                   108.7514
_cell_angle_gamma                   90.3166

loop_
_atom_site_label
_atom_site_type_symbol
_atom_site_fract_x
_atom_site_fract_y
_atom_site_fract_z
_atom_site_charge
  Ge     Ge        0.313819999999964    0.296860000000038    0.309830000000034  0.0000
  Ge     Ge        0.720862613607882    0.225890210083194    0.706018906414541  0.0000
  Ge     Ge        0.739415523545319    0.634059775417151    0.725251113126641  0.0000
  Ge     Ge        0.698754251839404    0.271822807753422    0.390711944468475  0.0000
  Ge     Ge        0.363353379271407    0.653707370018220    0.642205277027061  0.0000
  Ge     Ge        0.893643481143200    0.962799034294520    0.336770771926270  0.0000
  Ge     Ge        0.137261807250786    0.952741961534388    0.648693002667271  0.0000
  Ge     Ge        0.125983856650683    0.975094043317760    0.161757360608600  0.0000
  Si     Si        0.337169101941913    0.678061331138584    0.340708289020255  0.0000
  Si     Si        0.349644024530829    0.256954329069672    0.621530851010526  0.0000
  Si     Si        0.708929138496461    0.657164234688441    0.421756582978123  0.0000
  Si     Si        0.942402777793456    0.932253831432397    0.855101289232149  0.0000
  O3     O3        0.271479680187855    0.270886090492069    0.459451892330079  0.0000
  O1     O1        0.771517732489406    0.219046638561864    0.561419351501076  0.0000
  O3     O3        0.797175938512806    0.666315614764948    0.581441186109346  0.0000
  O3     O3        0.277129074968725    0.691371277214411    0.468206734368661  0.0000
  O3     O3        0.278659140736984    0.510637594873498    0.259747855361053  0.0000
  O1     O1        0.754328073779991    0.423018008654476    0.770618642530122  0.0000
  O1     O1        0.501322411530981    0.238033899424792    0.325079908293674  0.0000
  O3     O3        0.523358662675181    0.183287746480589    0.650957810524270  0.0000
  O1     O1        0.555322054326905    0.712065380208218    0.701704904786827  0.0000
  O2     O2        0.525257845705108    0.651101288801066    0.412201034650084  0.0000
  O1     O1        0.182939311742282    0.179256272730297    0.194089554293465  0.0000
  O3     O3        0.811616473793159    0.078986712048106    0.834806680172425  0.0000
  O3     O3        0.867598730315683    0.747535452831813    0.850422620717554  0.0000
  O3     O3        0.286561772440243    0.844335354032711    0.244173638120239  0.0000
  O3     O3        0.356918959529268    0.439758595625226    0.683468815966537  0.0000
  O3     O3        0.744482742545030    0.482593506310836    0.366436750915414  0.0000
  O3     O3        0.252241001716906    0.131881274867796    0.686908478941574  0.0000
  O1     O1        0.797879215651722    0.153999363402386    0.311779892723053  0.0000
  O3     O3        0.752103679785483    0.813422530233627    0.340063482722001  0.0000
  O1     O1        0.252935240652973    0.774644802085153    0.708527462120532  0.0000
  O1     O1        0.054519781887481    0.949626410921872    0.477269384311633  0.0000
  O1     O1        0.962382516471659    0.928609520206273    0.204771301850541  0.0000
  O3     O3        0.996876448783216    0.968377866128645    0.724091083852664  0.0000
  O3     O3        0.084468576950638    0.947643469791283    0.991057776960661  0.0000
