data_c00012.vasp
_audit_creation_method             Generated by GULP
_audit_author_name                 Salvador R. G. Balestra
_symmetry_space_group_name_H-M     'P 1             '
_symmetry_Int_Tables_number        1

loop_
_symmetry_equiv_pos_site_id
_symmetry_equiv_pos_as_xyz
_cell_length_a                        9.2443
_cell_length_b                        7.7186
_cell_length_c                       10.1506
_cell_angle_alpha                   85.9953
_cell_angle_beta                   107.3227
_cell_angle_gamma                   90.5886

loop_
_atom_site_label
_atom_site_type_symbol
_atom_site_fract_x
_atom_site_fract_y
_atom_site_fract_z
_atom_site_charge
  Ge     Ge        0.313819999999964    0.296860000000038    0.309830000000034  0.0000
  Ge     Ge        0.678914950115193    0.335756317321232    0.713912022154814  0.0000
  Ge     Ge        0.655284113993400    0.734623997414480    0.713891268644039  0.0000
  Ge     Ge        0.266762367601924    0.710098481734911    0.310526872026600  0.0000
  Ge     Ge        0.336762422640654    0.259062365869718    0.643440721657097  0.0000
  Ge     Ge        0.631101314113735    0.768491102165047    0.390408151096110  0.0000
  Ge     Ge        0.871943410875547    0.061243034582062    0.395989092327335  0.0000
  Ge     Ge        0.893152396441886    0.015852086458197    0.865415052469452  0.0000
  Si     Si        0.650905739221693    0.375694176375526    0.392605432008146  0.0000
  Si     Si        0.299314190183309    0.669176003921901    0.629071299650291  0.0000
  Si     Si        0.111228289957611    0.961279504204005    0.695808127762582  0.0000
  Si     Si        0.064420478415087    0.036542307262093    0.181494741272406  0.0000
  O1     O1        0.289396326959638    0.240283448863544    0.468770302002548  0.0000
  O3     O3        0.622466106795303    0.414033146766188    0.539704019810558  0.0000
  O1     O1        0.705500929599417    0.785899752223925    0.566034840699610  0.0000
  O3     O3        0.223751557636249    0.677935208506232    0.464949462866664  0.0000
  O1     O1        0.266797546475308    0.509033155198224    0.251102784935391  0.0000
  O1     O1        0.703427792242542    0.528713612583702    0.789946863876177  0.0000
  O3     O3        0.502504134396274    0.272210732366236    0.313113424980765  0.0000
  O1     O1        0.524660216719822    0.215362027769476    0.726112820290292  0.0000
  O3     O3        0.460752826892186    0.762742440775655    0.664484151048074  0.0000
  O1     O1        0.439163764183061    0.809164708341984    0.335837454454469  0.0000
  O3     O3        0.208299802428281    0.159846028709048    0.192023262605834  0.0000
  O1     O1        0.835654867231684    0.208543032453542    0.766918045674652  0.0000
  O1     O1        0.747767595337924    0.872723132131355    0.835560438812713  0.0000
  O3     O3        0.121356107939834    0.837443992258170    0.202496608518983  0.0000
  O3     O3        0.314446897243144    0.470476757142853    0.686155492512576  0.0000
  O3     O3        0.661323550118010    0.570108882325148    0.329241116082301  0.0000
  O3     O3        0.223678345286887    0.122684360075141    0.708982735959146  0.0000
  O3     O3        0.799663954210828    0.265343099093793    0.408698892611871  0.0000
  O1     O1        0.730736045273964    0.922607248848689    0.323128604215527  0.0000
  O2     O2        0.194245670460784    0.779231389248172    0.694719462039470  0.0000
  O3     O3        0.965805008084230    0.988483757114896    0.563023029369651  0.0000
  O3     O3        0.996333788077479    0.092001158128459    0.301283802621683  0.0000
  O3     O3        0.051674883163511    0.942092377780655    0.829244639506296  0.0000
  O3     O3        0.937499826525216    0.065153772956324    0.036207927042236  0.0000
