data_c00068.vasp
_audit_creation_method             Generated by GULP
_audit_author_name                 Salvador R. G. Balestra
_symmetry_space_group_name_H-M     'P 1             '
_symmetry_Int_Tables_number        1

loop_
_symmetry_equiv_pos_site_id
_symmetry_equiv_pos_as_xyz
_cell_length_a                        9.4483
_cell_length_b                        7.7143
_cell_length_c                       10.0396
_cell_angle_alpha                   82.1435
_cell_angle_beta                   111.3923
_cell_angle_gamma                   89.8175

loop_
_atom_site_label
_atom_site_type_symbol
_atom_site_fract_x
_atom_site_fract_y
_atom_site_fract_z
_atom_site_charge
  Ge     Ge        0.313819999999964    0.296860000000038    0.309830000000034  0.0000
  Ge     Ge        0.674445656554541    0.241917410590617    0.715417838558279  0.0000
  Ge     Ge        0.697073526737849    0.624648873080982    0.744587419699710  0.0000
  Ge     Ge        0.650904280499901    0.355470310182963    0.390503822061614  0.0000
  Ge     Ge        0.635613587620047    0.751164686200435    0.402648661890145  0.0000
  Ge     Ge        0.874267105862228    0.037974222363807    0.399644332747409  0.0000
  Ge     Ge        0.055892017786424    0.039940756583700    0.170630838247135  0.0000
  Ge     Ge        0.912351318668848    0.922661650025227    0.857276243852125  0.0000
  Si     Si        0.284925048759813    0.710329240549481    0.327826589281729  0.0000
  Si     Si        0.334431992883743    0.215805374591593    0.640500423339383  0.0000
  Si     Si        0.331708909922151    0.617963305334771    0.652262285574747  0.0000
  Si     Si        0.138463106630095    0.905117639102701    0.701803925157375  0.0000
  O3     O3        0.296595917533224    0.207158871813831    0.471913209752233  0.0000
  O1     O1        0.610679722121360    0.371198260890885    0.545819565956229  0.0000
  O1     O1        0.720185879854132    0.718332405686847    0.589269484611055  0.0000
  O2     O2        0.265533633629242    0.694106114783007    0.482756720373831  0.0000
  O3     O3        0.285880401581672    0.523135184328933    0.278300860579674  0.0000
  O1     O1        0.750122945791396    0.406931595383554    0.813258887512343  0.0000
  O1     O1        0.487042157936348    0.260657972451126    0.295786415785182  0.0000
  O3     O3        0.509566903181797    0.160659138464396    0.735047124069518  0.0000
  O3     O3        0.507769983141593    0.647249937559354    0.726821379029539  0.0000
  O3     O3        0.441809322488954    0.802382878138045    0.347410197461899  0.0000
  O1     O1        0.181809288993177    0.200647161208541    0.179657622352102  0.0000
  O1     O1        0.787474452941758    0.071987404825754    0.715766340445466  0.0000
  O1     O1        0.820995761416888    0.736203362214032    0.872919020073989  0.0000
  O3     O3        0.144166512593761    0.830669924026894    0.214247459606320  0.0000
  O2     O2        0.298970505564199    0.411516264731480    0.668993271615300  0.0000
  O1     O1        0.665298663872827    0.570512372724632    0.330595583996052  0.0000
  O2     O2        0.226697663193313    0.082331896166819    0.690639622958047  0.0000
  O1     O1        0.815866057030973    0.240316758999738    0.422249313805059  0.0000
  O1     O1        0.714180557612389    0.923775198440478    0.335438998709365  0.0000
  O2     O2        0.241573298741592    0.727497857985218    0.725995049193272  0.0000
  O3     O3        0.988936386761949    0.912435947728082    0.558730941019529  0.0000
  O1     O1        0.956890358709809    0.081733845645094    0.275522027270064  0.0000
  O3     O3        0.084628351915562    0.894738327343250    0.836453776163582  0.0000
  O1     O1        0.932090743266553    0.038578030257272    0.997101887855166  0.0000
