data_c00094.vasp
_audit_creation_method             Generated by GULP
_audit_author_name                 Salvador R. G. Balestra
_symmetry_space_group_name_H-M     'P 1             '
_symmetry_Int_Tables_number        1

loop_
_symmetry_equiv_pos_site_id
_symmetry_equiv_pos_as_xyz
_cell_length_a                        9.2557
_cell_length_b                        7.8588
_cell_length_c                       10.2235
_cell_angle_alpha                   89.8449
_cell_angle_beta                   107.0225
_cell_angle_gamma                   90.4867

loop_
_atom_site_label
_atom_site_type_symbol
_atom_site_fract_x
_atom_site_fract_y
_atom_site_fract_z
_atom_site_charge
  Ge     Ge        0.313819999999964    0.296860000000038    0.309830000000034  0.0000
  Ge     Ge        0.680996487471452    0.343435791735394    0.712006241340148  0.0000
  Ge     Ge        0.322474656760747    0.301180923093410    0.630148135126515  0.0000
  Ge     Ge        0.628920256485128    0.744142411535049    0.384475490419603  0.0000
  Ge     Ge        0.855380633650619    0.039975232505604    0.323956196379048  0.0000
  Ge     Ge        0.095033376489242    0.998286356493574    0.623194731808273  0.0000
  Ge     Ge        0.077750828476397    0.002353813528558    0.140703134116161  0.0000
  Ge     Ge        0.882202428451705    0.020475939563698    0.824043190400551  0.0000
  Si     Si        0.652309858777816    0.737154943342674    0.699072420487120  0.0000
  Si     Si        0.277006508355579    0.698272378992693    0.304766530558263  0.0000
  Si     Si        0.664740908664519    0.343232069274944    0.394430806460872  0.0000
  Si     Si        0.302566130501166    0.694579917887498    0.615753802027454  0.0000
  O1     O1        0.312548441820266    0.229185720613628    0.468481320013016  0.0000
  O3     O3        0.668646645032916    0.283523807234792    0.546072259316718  0.0000
  O3     O3        0.650993274529646    0.807953280643333    0.550615918954011  0.0000
  O2     O2        0.286719614407286    0.752421296820123    0.460115173829391  0.0000
  O3     O3        0.238506558234472    0.499761371986679    0.282762595371566  0.0000
  O3     O3        0.733927981475863    0.555594173682270    0.731666392832285  0.0000
  O3     O3        0.496172724895632    0.307281431285075    0.297204215066315  0.0000
  O1     O1        0.505483148527299    0.303821809258406    0.731464393042504  0.0000
  O2     O2        0.480075267014556    0.701613204166243    0.700816155600213  0.0000
  O3     O3        0.441511254689982    0.739735788059383    0.287831101371861  0.0000
  O1     O1        0.211488479980681    0.160084508439050    0.189071209059346  0.0000
  O1     O1        0.812432075518266    0.222770549550867    0.824247685241109  0.0000
  O3     O3        0.734586025909346    0.874625444048533    0.810303528826538  0.0000
  O3     O3        0.148446778494034    0.804776476731150    0.201328735441669  0.0000
  O3     O3        0.246044065238227    0.503254197889942    0.619141932420392  0.0000
  O3     O3        0.704148024715493    0.542363115534491    0.392210300031036  0.0000
  O1     O1        0.207927243918542    0.170188703161048    0.689542997809331  0.0000
  O3     O3        0.785888212639295    0.238278777538454    0.344961230074383  0.0000
  O1     O1        0.721746658010316    0.883529012688887    0.309462031754371  0.0000
  O3     O3        0.206043969385095    0.819328709593315    0.677120749443936  0.0000
  O1     O1        0.022174763465182    0.004957467080178    0.448598082884401  0.0000
  O1     O1        0.913406766973576    0.044986920393113    0.178748530136531  0.0000
  O1     O1        0.941473766304424    0.989599192370483    0.681823369569481  0.0000
  O1     O1        0.029913303357088    0.988637808346465    0.965258733252077  0.0000
