data_c00006.vasp
_audit_creation_method             Generated by GULP
_audit_author_name                 Salvador R. G. Balestra
_symmetry_space_group_name_H-M     'P 1             '
_symmetry_Int_Tables_number        1

loop_
_symmetry_equiv_pos_site_id
_symmetry_equiv_pos_as_xyz
_cell_length_a                        9.0854
_cell_length_b                        7.7587
_cell_length_c                       10.2535
_cell_angle_alpha                   90.4058
_cell_angle_beta                   107.6727
_cell_angle_gamma                   88.3189

loop_
_atom_site_label
_atom_site_type_symbol
_atom_site_fract_x
_atom_site_fract_y
_atom_site_fract_z
_atom_site_charge
  Ge     Ge        0.313819999999964    0.296860000000038    0.309830000000034  0.0000
  Ge     Ge        0.709221844051807    0.213331763952011    0.710781690761498  0.0000
  Ge     Ge        0.748124457865309    0.620826654392530    0.728419052116059  0.0000
  Ge     Ge        0.376113934789437    0.699387261392768    0.328511623957130  0.0000
  Ge     Ge        0.340812680283821    0.298435336019286    0.629762277744356  0.0000
  Ge     Ge        0.686655328473927    0.224857883599989    0.392390352165237  0.0000
  Ge     Ge        0.921822475112004    0.931865285715289    0.343416451245213  0.0000
  Ge     Ge        0.147781206952266    0.984401936929715    0.654952582546227  0.0000
  Si     Si        0.736513278991258    0.624749809848855    0.414848035661740  0.0000
  Si     Si        0.390487351060574    0.695717555806790    0.642493271981396  0.0000
  Si     Si        0.134623667702942    0.982016120736587    0.156887994477066  0.0000
  Si     Si        0.944715404540658    0.927156892821444    0.856013629393256  0.0000
  O1     O1        0.259872271066351    0.311081003904798    0.455459424445477  0.0000
  O1     O1        0.767365307538950    0.194122243706031    0.566083051300148  0.0000
  O3     O3        0.798281921931639    0.604955417110979    0.578758440981386  0.0000
  O3     O3        0.323687584692385    0.704105722552263    0.477488250981647  0.0000
  O1     O1        0.326443699781098    0.502866788996301    0.253083197880571  0.0000
  O1     O1        0.743175197432518    0.416283667699074    0.782846317001201  0.0000
  O1     O1        0.492100793288716    0.194910597097047    0.345809674923806  0.0000
  O1     O1        0.514501241609255    0.186206919738307    0.660811491852639  0.0000
  O3     O3        0.571928002327119    0.732621435419581    0.689343385331282  0.0000
  O3     O3        0.572655920215160    0.729102019946035    0.371222551706968  0.0000
  O3     O3        0.174494030747637    0.180038355131222    0.191975900401832  0.0000
  O3     O3        0.806832012086560    0.068041767474192    0.836118406191531  0.0000
  O3     O3        0.879683375005095    0.736996218424267    0.852083288822855  0.0000
  O3     O3        0.288727334503181    0.867556358081239    0.223653743001048  0.0000
  O3     O3        0.372283455871224    0.503870909566653    0.695071878827854  0.0000
  O3     O3        0.713132837184936    0.435812779129807    0.349200777973185  0.0000
  O1     O1        0.225866900291206    0.183658479497105    0.699809947696788  0.0000
  O1     O1        0.774378062404138    0.083303128322764    0.309471305948132  0.0000
  O3     O3        0.859084421879478    0.728694370936621    0.365601864770953  0.0000
  O3     O3        0.296046094629735    0.829612078076011    0.706654828716894  0.0000
  O1     O1        0.073084457894312    0.987521485878785    0.480304466036650  0.0000
  O3     O3        0.993406705669222    0.918342235765960    0.205110450441842  0.0000
  O3     O3        0.003634930748227    0.945516159013848    0.723835660477298  0.0000
  O2     O2        0.085183153207527    0.959178107012686    0.992205585662004  0.0000
