data_c00005.vasp
_audit_creation_method             Generated by GULP
_audit_author_name                 Salvador R. G. Balestra
_symmetry_space_group_name_H-M     'P 1             '
_symmetry_Int_Tables_number        1

loop_
_symmetry_equiv_pos_site_id
_symmetry_equiv_pos_as_xyz
_cell_length_a                        8.9851
_cell_length_b                        7.7783
_cell_length_c                       10.2711
_cell_angle_alpha                   90.9990
_cell_angle_beta                   105.1965
_cell_angle_gamma                   87.4984

loop_
_atom_site_label
_atom_site_type_symbol
_atom_site_fract_x
_atom_site_fract_y
_atom_site_fract_z
_atom_site_charge
  Ge     Ge        0.313819999999964    0.296860000000038    0.309830000000034  0.0000
  Ge     Ge        0.674218625278409    0.231457922774949    0.716650952470490  0.0000
  Ge     Ge        0.720550241239815    0.632128038827257    0.728479917212911  0.0000
  Ge     Ge        0.363474673863434    0.700336975682225    0.320248256822569  0.0000
  Ge     Ge        0.304009968991121    0.311435634629703    0.619422220010828  0.0000
  Ge     Ge        0.686281257035319    0.222521504765004    0.405190488477879  0.0000
  Ge     Ge        0.731019128399060    0.627119122884485    0.411618068528452  0.0000
  Ge     Ge        0.919061094861890    0.941341226553363    0.883536529550333  0.0000
  Si     Si        0.359266493164497    0.706883413898892    0.631691001614101  0.0000
  Si     Si        0.927759163881826    0.931808437765560    0.388933680814283  0.0000
  Si     Si        0.126945119598208    0.999259158555576    0.681773018244322  0.0000
  Si     Si        0.124669130957443    0.987287158876121    0.185595056858808  0.0000
  O1     O1        0.239767347815943    0.317295785075893    0.447605982747973  0.0000
  O1     O1        0.747119335172175    0.216847392163895    0.578040861669624  0.0000
  O1     O1        0.781549210817288    0.613980520204216    0.584061936841237  0.0000
  O3     O3        0.308321718908074    0.703404446503062    0.469709417329241  0.0000
  O1     O1        0.333119032119475    0.496672248586745    0.251856625735157  0.0000
  O1     O1        0.703813157651565    0.433008359985605    0.787839538385031  0.0000
  O1     O1        0.491798527083935    0.191042229543346    0.357357882567366  0.0000
  O1     O1        0.479880947314003    0.204607739034855    0.664425026536253  0.0000
  O3     O3        0.540011189122215    0.738865122270716    0.684876052065376  0.0000
  O1     O1        0.556110321502932    0.737550709202083    0.357793902947895  0.0000
  O3     O3        0.190455312302056    0.175398953745596    0.187777862297599  0.0000
  O1     O1        0.764218567774010    0.081366254969216    0.832819583422534  0.0000
  O1     O1        0.853369298982103    0.739083311354088    0.847631302320990  0.0000
  O3     O3        0.264039845198177    0.845860132375759    0.201415829731452  0.0000
  O3     O3        0.321376523065165    0.521356683360962    0.681565351364773  0.0000
  O1     O1        0.717957140683650    0.422142937824826    0.348628068971359  0.0000
  O3     O3        0.177551420990327    0.194203990146293    0.679865829065618  0.0000
  O3     O3        0.785499336573213    0.067048276658451    0.335663106644224  0.0000
  O3     O3        0.868497216698854    0.740091704631768    0.361245708306064  0.0000
  O2     O2        0.268826217292954    0.862147566485526    0.687987063846421  0.0000
  O2     O2        0.987240727115364    0.960483152724014    0.550907451481768  0.0000
  O2     O2        0.065045547497274    0.962209797822813    0.320429051658839  0.0000
  O3     O3        0.069265424680246    0.981889797134791    0.814638554398476  0.0000
  O3     O3        0.986999043788857    0.957881369415174    0.056429521664742  0.0000
