data_c00071.vasp
_audit_creation_method             Generated by GULP
_audit_author_name                 Salvador R. G. Balestra
_symmetry_space_group_name_H-M     'P 1             '
_symmetry_Int_Tables_number        1

loop_
_symmetry_equiv_pos_site_id
_symmetry_equiv_pos_as_xyz
_cell_length_a                        9.1400
_cell_length_b                        7.7948
_cell_length_c                       10.3609
_cell_angle_alpha                   89.2672
_cell_angle_beta                   107.9694
_cell_angle_gamma                   88.8834

loop_
_atom_site_label
_atom_site_type_symbol
_atom_site_fract_x
_atom_site_fract_y
_atom_site_fract_z
_atom_site_charge
  Ge     Ge        0.313819999999964    0.296860000000038    0.309830000000034  0.0000
  Ge     Ge        0.703243601453230    0.209026553888524    0.701075968806273  0.0000
  Ge     Ge        0.746598632087010    0.621519043213877    0.720785152565772  0.0000
  Ge     Ge        0.684449972633112    0.235421344771555    0.385390944852203  0.0000
  Ge     Ge        0.381876265566668    0.681786501664974    0.639950586040408  0.0000
  Ge     Ge        0.910062770323948    0.941922419966921    0.331753325111950  0.0000
  Ge     Ge        0.141056649837198    0.980768111330589    0.642635904163623  0.0000
  Ge     Ge        0.946560840308531    0.928375086353853    0.857128938767629  0.0000
  Si     Si        0.358111562230854    0.690196914346955    0.329727671821315  0.0000
  Si     Si        0.344880719889030    0.284329893865955    0.621667433426948  0.0000
  Si     Si        0.719233794167759    0.637515883573397    0.408673177107898  0.0000
  Si     Si        0.134790275527912    0.978655611043884    0.160722833236631  0.0000
  O3     O3        0.269866129548907    0.306918134955388    0.459425704905297  0.0000
  O1     O1        0.756909332415837    0.189012736948315    0.556114187754341  0.0000
  O3     O3        0.794219280382409    0.639154356274965    0.570720463554846  0.0000
  O3     O3        0.308369499703350    0.700255859617886    0.464362923628025  0.0000
  O3     O3        0.310710792258702    0.510516717910706    0.255779752639713  0.0000
  O1     O1        0.742142764736933    0.412224962126855    0.764135536064277  0.0000
  O1     O1        0.490145033081224    0.206318019570144    0.326976844215390  0.0000
  O3     O3        0.506447533325144    0.182373788387342    0.646173827468678  0.0000
  O1     O1        0.572784520334339    0.727489446344413    0.697087194554812  0.0000
  O2     O2        0.542947384283101    0.708473560634810    0.375357424637822  0.0000
  O3     O3        0.176380894512274    0.174285363257329    0.200110253867494  0.0000
  O1     O1        0.790443113522926    0.067608030505028    0.829319684117706  0.0000
  O1     O1        0.884842853239115    0.722331185511738    0.845400013353801  0.0000
  O2     O2        0.279437415151758    0.851341047828546    0.232849619842330  0.0000
  O3     O3        0.370948372776763    0.469278560153637    0.689003674011408  0.0000
  O3     O3        0.717921211148542    0.447455892414989    0.353943718373089  0.0000
  O3     O3        0.236217987785500    0.173491646483832    0.681989711575159  0.0000
  O1     O1        0.778418249846333    0.108131996671598    0.302456415183737  0.0000
  O3     O3        0.815756839771581    0.753926740686041    0.339545800562591  0.0000
  O1     O1        0.271486301570430    0.812593981170031    0.703507234241570  0.0000
  O1     O1        0.066227842863487    0.970220511450344    0.469671642085560  0.0000
  O3     O3        0.981341156066701    0.926724797184611    0.194709455176622  0.0000
  O1     O1        0.000981271584779    0.978632315996202    0.716231304603838  0.0000
  O3     O3        0.097876039279476    0.962359883806476    0.999719094094158  0.0000
