data_c00008.vasp
_audit_creation_method             Generated by GULP
_audit_author_name                 Salvador R. G. Balestra
_symmetry_space_group_name_H-M     'P 1             '
_symmetry_Int_Tables_number        1

loop_
_symmetry_equiv_pos_site_id
_symmetry_equiv_pos_as_xyz
_cell_length_a                        9.0240
_cell_length_b                        7.7981
_cell_length_c                       10.1925
_cell_angle_alpha                   90.2134
_cell_angle_beta                   105.9981
_cell_angle_gamma                   91.4135

loop_
_atom_site_label
_atom_site_type_symbol
_atom_site_fract_x
_atom_site_fract_y
_atom_site_fract_z
_atom_site_charge
  Ge     Ge        0.313819999999964    0.296860000000038    0.309830000000034  0.0000
  Ge     Ge        0.694739153333441    0.378736348181565    0.718928708063112  0.0000
  Ge     Ge        0.637672315285644    0.778382047376217    0.695851841473307  0.0000
  Ge     Ge        0.280621625540640    0.701066966730236    0.293964264326428  0.0000
  Ge     Ge        0.319813920968079    0.311120727591290    0.627775153139359  0.0000
  Ge     Ge        0.683492687200163    0.369187895081057    0.398648547103564  0.0000
  Ge     Ge        0.884101995374512    0.054852416049008    0.379809325409016  0.0000
  Ge     Ge        0.883800254533585    0.064753481439543    0.871206491683271  0.0000
  Si     Si        0.639589612993530    0.765951220879689    0.384998190554234  0.0000
  Si     Si        0.275847138652948    0.707738648922146    0.604169630205509  0.0000
  Si     Si        0.096712492419126    0.014983184104502    0.679808863985110  0.0000
  Si     Si        0.084248550964288    0.006043347769914    0.172660242961688  0.0000
  O1     O1        0.250434228728448    0.284335335799963    0.454397934224435  0.0000
  O1     O1        0.752984347866290    0.380472626224083    0.572660142539880  0.0000
  O3     O3        0.699074438396740    0.776749549043406    0.549210354864079  0.0000
  O3     O3        0.221655892573656    0.681326319106391    0.441518327553426  0.0000
  O1     O1        0.285771972298176    0.497391625075732    0.236944350198890  0.0000
  O1     O1        0.682202486976135    0.584884819021244    0.773666173618989  0.0000
  O1     O1        0.507125285005757    0.262590381573796    0.359815381861079  0.0000
  O1     O1        0.513777404845252    0.281677515791010    0.682246096886372  0.0000
  O3     O3        0.440919002657011    0.804770619508265    0.647910775282154  0.0000
  O3     O3        0.459122920030769    0.806309343096975    0.335693362055820  0.0000
  O3     O3        0.215288835767165    0.153319194283392    0.184769172645369  0.0000
  O1     O1        0.830718247282322    0.272380180040661    0.840489134569051  0.0000
  O1     O1        0.720028677618762    0.943753914126286    0.800814268077439  0.0000
  O3     O3        0.156724146021185    0.820365481813294    0.171198278517540  0.0000
  O3     O3        0.285362341400703    0.520948591898062    0.671161488119407  0.0000
  O3     O3        0.659631019060188    0.573914371114882    0.333665177042704  0.0000
  O3     O3        0.228402568626542    0.162852444286804    0.705757160936525  0.0000
  O1     O1        0.804578400210938    0.251313009543860    0.333718225617383  0.0000
  O3     O3        0.739581999533615    0.898959733471721    0.324488402574270  0.0000
  O2     O2        0.155650964078381    0.828397920417310    0.649620684507934  0.0000
  O3     O3        0.951076095678353    0.062915774179377    0.556024311545885  0.0000
  O3     O3        0.033393534344071    0.017913894565714    0.312553035237214  0.0000
  O3     O3        0.037305017673392    0.001706144205068    0.813840767565001  0.0000
  O3     O3        0.938604792417643    0.032675553743229    0.045827686249700  0.0000
