data_c00019.vasp
_audit_creation_method             Generated by GULP
_audit_author_name                 Salvador R. G. Balestra
_symmetry_space_group_name_H-M     'P 1             '
_symmetry_Int_Tables_number        1

loop_
_symmetry_equiv_pos_site_id
_symmetry_equiv_pos_as_xyz
_cell_length_a                        9.2394
_cell_length_b                        7.7794
_cell_length_c                        9.9801
_cell_angle_alpha                   96.4685
_cell_angle_beta                   107.1023
_cell_angle_gamma                   88.7234

loop_
_atom_site_label
_atom_site_type_symbol
_atom_site_fract_x
_atom_site_fract_y
_atom_site_fract_z
_atom_site_charge
  Ge     Ge        0.313819999999964    0.296860000000038    0.309830000000034  0.0000
  Ge     Ge        0.650356716873504    0.294645956561327    0.711326427415885  0.0000
  Ge     Ge        0.693300469458243    0.708471205764155    0.707428033449777  0.0000
  Ge     Ge        0.310664068645840    0.679751208482521    0.283543421008626  0.0000
  Ge     Ge        0.307646784004482    0.371595103672868    0.629994409994847  0.0000
  Ge     Ge        0.329691197496786    0.764047515939943    0.622608442219300  0.0000
  Ge     Ge        0.088446068902670    0.976703848279730    0.163229586362963  0.0000
  Ge     Ge        0.909918722003972    0.035047115675528    0.844307149846023  0.0000
  Si     Si        0.651682896747013    0.240103456687027    0.389071963423010  0.0000
  Si     Si        0.668276584116562    0.641427966575477    0.381773993678376  0.0000
  Si     Si        0.861793090337258    0.931137255952480    0.331880929093416  0.0000
  Si     Si        0.096735230074190    0.055213969637486    0.620368575369557  0.0000
  O1     O1        0.368240608862817    0.394005773601719    0.482902478389131  0.0000
  O3     O3        0.654728943245558    0.203056229693573    0.544704472067706  0.0000
  O3     O3        0.690016490311822    0.734325218684747    0.536552453124429  0.0000
  O1     O1        0.295928095519484    0.770530700665640    0.443966353561586  0.0000
  O1     O1        0.242605856029896    0.471753027752659    0.224110453145554  0.0000
  O1     O1        0.721917621842561    0.500883724075432    0.745569486619299  0.0000
  O3     O3        0.482436547561088    0.215688954875635    0.284480255236064  0.0000
  O1     O1        0.472481120087719    0.295741234435552    0.735278194132683  0.0000
  O1     O1        0.518803800746358    0.780502194169709    0.714733635735962  0.0000
  O3     O3        0.498771342788102    0.658429019534798    0.285288738175606  0.0000
  O1     O1        0.186715934337739    0.136494069137234    0.288885500823336  0.0000
  O1     O1        0.758388860826291    0.168687159952193    0.831460656721280  0.0000
  O1     O1        0.843888371146177    0.826121303079661    0.817630855002872  0.0000
  O1     O1        0.206529713450592    0.805101426191119    0.160520613256198  0.0000
  O1     O1        0.263240206066094    0.581909076223216    0.670526443226744  0.0000
  O2     O2        0.711077901758408    0.436899491082575    0.388561227935127  0.0000
  O3     O3        0.151235856910401    0.242706335973641    0.598671972230207  0.0000
  O2     O2        0.756046168793813    0.098754141961840    0.332374586841059  0.0000
  O2     O2        0.778415144017704    0.746821214865522    0.318647434594021  0.0000
  O3     O3        0.241407629090689    0.941715408939850    0.685174666633302  0.0000
  O2     O2        0.006459635085277    0.948531982896374    0.471059326775778  0.0000
  O3     O3        0.923091689513649    0.922389020181664    0.197663504639276  0.0000
  O3     O3        0.991620507129965    0.091134259027482    0.720113104974221  0.0000
  O1     O1        0.043382477373852    0.061631291898580    0.005492196071325  0.0000
