data_c00057.vasp
_audit_creation_method             Generated by GULP
_audit_author_name                 Salvador R. G. Balestra
_symmetry_space_group_name_H-M     'P 1             '
_symmetry_Int_Tables_number        1

loop_
_symmetry_equiv_pos_site_id
_symmetry_equiv_pos_as_xyz
_cell_length_a                        9.3596
_cell_length_b                        7.7139
_cell_length_c                       10.2430
_cell_angle_alpha                   84.1814
_cell_angle_beta                   108.7910
_cell_angle_gamma                   90.7404

loop_
_atom_site_label
_atom_site_type_symbol
_atom_site_fract_x
_atom_site_fract_y
_atom_site_fract_z
_atom_site_charge
  Ge     Ge        0.313819999999964    0.296860000000038    0.309830000000034  0.0000
  Ge     Ge        0.706288262465913    0.254370316939649    0.713428554277814  0.0000
  Ge     Ge        0.665052285691100    0.681438893758342    0.723179855717337  0.0000
  Ge     Ge        0.342643974690437    0.207621275452622    0.636404783890342  0.0000
  Ge     Ge        0.324111627541382    0.609350363474586    0.644954928109128  0.0000
  Ge     Ge        0.864659425014392    0.035129095038543    0.345684312033157  0.0000
  Ge     Ge        0.098450830048087    0.994205471645308    0.180766085863330  0.0000
  Ge     Ge        0.930170877225940    0.934225220631774    0.863569143876592  0.0000
  Si     Si        0.317108901467097    0.677382928359798    0.333798238575571  0.0000
  Si     Si        0.676707348665076    0.325687264001622    0.400470638577873  0.0000
  Si     Si        0.650776437760384    0.732411158243660    0.407649651025306  0.0000
  Si     Si        0.110426038853600    0.920368844043287    0.642637111843527  0.0000
  O1     O1        0.276628701832319    0.217332087296658    0.457700218613527  0.0000
  O3     O3        0.737172583629726    0.237058153249486    0.557177113778923  0.0000
  O3     O3        0.680042291894409    0.772084767400189    0.564934732834008  0.0000
  O3     O3        0.364823635612074    0.583486602802116    0.491950874055157  0.0000
  O3     O3        0.260504094087661    0.514454409230803    0.246882929456700  0.0000
  O1     O1        0.707274651087056    0.462686040269118    0.752582607511059  0.0000
  O3     O3        0.503099695472547    0.281712642158156    0.330776060129757  0.0000
  O1     O1        0.533299981944421    0.164391770215383    0.698189791797694  0.0000
  O1     O1        0.487236056612813    0.703100700055381    0.736544183025678  0.0000
  O2     O2        0.472647938789042    0.760465993400377    0.318011393248849  0.0000
  O1     O1        0.207200745082814    0.174312153607177    0.184879864529110  0.0000
  O1     O1        0.852321991982405    0.140451708770095    0.835487466488594  0.0000
  O1     O1        0.786921890080995    0.789048661309562    0.848710648826192  0.0000
  O3     O3        0.195948198787827    0.828996523058922    0.307302689353974  0.0000
  O1     O1        0.303588497754201    0.395676859073179    0.698040073497443  0.0000
  O2     O2        0.700666474062979    0.533296274665490    0.403224039989220  0.0000
  O3     O3        0.254974087926748    0.037467429237909    0.702986041950623  0.0000
  O3     O3        0.772897378195724    0.235797737665658    0.321075958777105  0.0000
  O3     O3        0.744260083480558    0.862137372994269    0.337791809260299  0.0000
  O3     O3        0.164453140262230    0.728606235625112    0.623774901208281  0.0000
  O3     O3        0.015396033791824    0.019587597022851    0.495627105656767  0.0000
  O1     O1        0.932508435300208    0.035743740284367    0.209314408925896  0.0000
  O3     O3        0.013411091501757    0.886885717471260    0.743567490485043  0.0000
  O1     O1        0.062296747096319    0.912989492104211    0.024187119760656  0.0000
