data_c00054.vasp
_audit_creation_method             Generated by GULP
_audit_author_name                 Salvador R. G. Balestra
_symmetry_space_group_name_H-M     'P 1             '
_symmetry_Int_Tables_number        1

loop_
_symmetry_equiv_pos_site_id
_symmetry_equiv_pos_as_xyz
_cell_length_a                        9.1115
_cell_length_b                        7.8153
_cell_length_c                       10.0746
_cell_angle_alpha                   85.5590
_cell_angle_beta                   106.4257
_cell_angle_gamma                   91.1966

loop_
_atom_site_label
_atom_site_type_symbol
_atom_site_fract_x
_atom_site_fract_y
_atom_site_fract_z
_atom_site_charge
  Ge     Ge        0.313819999999964    0.296860000000038    0.309830000000034  0.0000
  Ge     Ge        0.679940768914352    0.322605533420461    0.716359044560822  0.0000
  Ge     Ge        0.636803538585869    0.712235206277069    0.724658981999234  0.0000
  Ge     Ge        0.330932272797142    0.238069251125471    0.634028635249449  0.0000
  Ge     Ge        0.629503062583971    0.757891301368025    0.393680059867440  0.0000
  Ge     Ge        0.094481601210729    0.936260308402213    0.694069704975856  0.0000
  Ge     Ge        0.064072591038874    0.020812537218513    0.195327415699485  0.0000
  Ge     Ge        0.873605566601709    0.993907066906185    0.875528386142203  0.0000
  Si     Si        0.274809138296768    0.699730934758545    0.317257886022130  0.0000
  Si     Si        0.654229244219201    0.371973638557311    0.391401371893871  0.0000
  Si     Si        0.282657169393711    0.639705764734491    0.629023770319455  0.0000
  Si     Si        0.860455587464313    0.052390971008139    0.403486941180160  0.0000
  O1     O1        0.317030563107791    0.191472219730877    0.467251698086459  0.0000
  O3     O3        0.612345369377877    0.377596310527655    0.537490666971778  0.0000
  O1     O1        0.652189183969449    0.788776641734533    0.564342440878604  0.0000
  O2     O2        0.283358451841102    0.725586484794193    0.477324520794391  0.0000
  O3     O3        0.240792234211395    0.502935778026938    0.287297196662271  0.0000
  O1     O1        0.727481543018290    0.518748238444705    0.780651058348843  0.0000
  O3     O3        0.496658191673702    0.312430622177302    0.287205478194705  0.0000
  O1     O1        0.514319889317866    0.233238745800112    0.741390236974140  0.0000
  O3     O3        0.450138928978638    0.674899818783390    0.728763876728297  0.0000
  O3     O3        0.438487798228380    0.761034304507094    0.299565532719135  0.0000
  O1     O1        0.200805789106559    0.172995827932505    0.188499761528184  0.0000
  O1     O1        0.829782061898790    0.188477411981951    0.777703942211938  0.0000
  O1     O1        0.718289546191644    0.861067457112357    0.838379434168819  0.0000
  O3     O3        0.141096586541271    0.816243535204661    0.217597963474899  0.0000
  O3     O3        0.248471248449504    0.438912888122492    0.625368662446764  0.0000
  O3     O3        0.701891041822152    0.566026821400432    0.359559425153276  0.0000
  O1     O1        0.233862837319438    0.086267977545148    0.708091225456589  0.0000
  O2     O2        0.791442790946606    0.243126716172957    0.399092946906066  0.0000
  O3     O3        0.728088499242262    0.922570434364426    0.330972129214696  0.0000
  O3     O3        0.154898539861722    0.732796255992367    0.677053046115463  0.0000
  O3     O3        0.928675125406426    0.985375520119770    0.562858278154985  0.0000
  O3     O3        0.996066524304188    0.067896008414957    0.332956732070368  0.0000
  O1     O1        0.031481219175069    0.916381854686827    0.839992710430408  0.0000
  O1     O1        0.916569817722403    0.032591373489799    0.047656756916383  0.0000
