data_c00026.vasp
_audit_creation_method             Generated by GULP
_audit_author_name                 Salvador R. G. Balestra
_symmetry_space_group_name_H-M     'P 1             '
_symmetry_Int_Tables_number        1

loop_
_symmetry_equiv_pos_site_id
_symmetry_equiv_pos_as_xyz
_cell_length_a                        9.0861
_cell_length_b                        7.7222
_cell_length_c                       10.2756
_cell_angle_alpha                   86.8430
_cell_angle_beta                   107.5422
_cell_angle_gamma                   92.2752

loop_
_atom_site_label
_atom_site_type_symbol
_atom_site_fract_x
_atom_site_fract_y
_atom_site_fract_z
_atom_site_charge
  Ge     Ge        0.313819999999964    0.296860000000038    0.309830000000034  0.0000
  Ge     Ge        0.701264078584650    0.347416789440576    0.711094229380322  0.0000
  Ge     Ge        0.642830611312220    0.753259993028265    0.708824812940878  0.0000
  Ge     Ge        0.334519937336123    0.261192218586040    0.630192501106996  0.0000
  Ge     Ge        0.682076551376443    0.375126778278568    0.388949097073222  0.0000
  Ge     Ge        0.638615281739830    0.777909697509559    0.390774548790819  0.0000
  Ge     Ge        0.278050252783836    0.666850037011764    0.615197726151785  0.0000
  Ge     Ge        0.083234863571628    0.973773188644424    0.671448777516197  0.0000
  Si     Si        0.279117859670913    0.694448035442112    0.305310255087806  0.0000
  Si     Si        0.874243475987167    0.071784721770552    0.367002883999287  0.0000
  Si     Si        0.080147119689267    0.008718390373557    0.177551945072808  0.0000
  Si     Si        0.884695422035521    0.026785455167737    0.870595514001108  0.0000
  O1     O1        0.260663493519865    0.256002115534674    0.454801837053388  0.0000
  O1     O1        0.747423216089022    0.392070395795776    0.563191417982493  0.0000
  O1     O1        0.704541084784766    0.783820306584010    0.565903383349997  0.0000
  O3     O3        0.230685630422548    0.645086974974074    0.440316744594721  0.0000
  O3     O3        0.291140864109090    0.511327781458883    0.243701405744231  0.0000
  O1     O1        0.680198860714234    0.543557456042331    0.773702753857019  0.0000
  O1     O1        0.507913573052570    0.263495793847187    0.347336957345250  0.0000
  O1     O1        0.529473973055841    0.231347552316314    0.674350760765467  0.0000
  O1     O1        0.448147676513059    0.784851112098315    0.668451808045812  0.0000
  O3     O3        0.440685200620811    0.801896755177736    0.346293357819877  0.0000
  O3     O3        0.207882432837506    0.159551046431744    0.185732490933537  0.0000
  O3     O3        0.845176373469984    0.224920177225036    0.821685731338997  0.0000
  O3     O3        0.733618709051252    0.904195922314895    0.826092833828140  0.0000
  O2     O2        0.154845722655970    0.819166236086073    0.200049527092936  0.0000
  O1     O1        0.303036314670801    0.460104155687115    0.684479246323649  0.0000
  O1     O1        0.668352918443547    0.585355185879760    0.327266187106788  0.0000
  O1     O1        0.246085418941201    0.103167962247353    0.704632134669197  0.0000
  O3     O3        0.810282796606902    0.264544437969093    0.330310894820169  0.0000
  O3     O3        0.730305002051032    0.937711143835964    0.319001229865266  0.0000
  O1     O1        0.130734663508193    0.766793070916438    0.648651143864517  0.0000
  O3     O3        0.942309494114579    0.054075878908392    0.530830292931803  0.0000
  O2     O2        0.006354695227977    0.035266719794073    0.299481060339824  0.0000
  O3     O3        0.014272517754573    0.959189941155270    0.810328214739039  0.0000
  O2     O2        0.947715954637875    0.018022022661994    0.034791750680163  0.0000
