data_c00046.vasp
_audit_creation_method             Generated by GULP
_audit_author_name                 Salvador R. G. Balestra
_symmetry_space_group_name_H-M     'P 1             '
_symmetry_Int_Tables_number        1

loop_
_symmetry_equiv_pos_site_id
_symmetry_equiv_pos_as_xyz
_cell_length_a                        9.2700
_cell_length_b                        7.7537
_cell_length_c                       10.2116
_cell_angle_alpha                   84.7692
_cell_angle_beta                   109.0909
_cell_angle_gamma                   90.4970

loop_
_atom_site_label
_atom_site_type_symbol
_atom_site_fract_x
_atom_site_fract_y
_atom_site_fract_z
_atom_site_charge
  Ge     Ge        0.313819999999964    0.296860000000038    0.309830000000034  0.0000
  Ge     Ge        0.706663797141473    0.281259778985045    0.711706651362094  0.0000
  Ge     Ge        0.668070888139745    0.701632232431369    0.721680789982929  0.0000
  Ge     Ge        0.337631037888278    0.230931891081436    0.631407891011635  0.0000
  Ge     Ge        0.633297496598149    0.754662463082596    0.388361964897583  0.0000
  Ge     Ge        0.321184452065827    0.631875967053766    0.643976810654327  0.0000
  Ge     Ge        0.863121006467577    0.053317843031479    0.332146878378825  0.0000
  Ge     Ge        0.091384600546091    0.003712654506338    0.164410253561287  0.0000
  Si     Si        0.295907473440069    0.683974724961454    0.321833020413655  0.0000
  Si     Si        0.676297967488640    0.344509145625089    0.396736685393769  0.0000
  Si     Si        0.105200843408888    0.943830887151956    0.638881731078456  0.0000
  Si     Si        0.922637090291891    0.960903493284353    0.851577460194987  0.0000
  O1     O1        0.260157994593268    0.236680829955485    0.452818121635374  0.0000
  O3     O3        0.755390612001900    0.301030727976977    0.561744724017701  0.0000
  O1     O1        0.682410721586963    0.777313249882772    0.562500601754216  0.0000
  O3     O3        0.348768031446388    0.606444515341020    0.484492563402100  0.0000
  O3     O3        0.264216837446560    0.511153197372948    0.242212528342679  0.0000
  O1     O1        0.704961238023406    0.483207510856299    0.764306593186056  0.0000
  O3     O3        0.508085595687459    0.264597897996760    0.356148648965883  0.0000
  O1     O1        0.530972409860349    0.189175584498672    0.682506512722826  0.0000
  O1     O1        0.486873562747157    0.729409471876825    0.729977480247965  0.0000
  O3     O3        0.439055264258144    0.791147876926572    0.303584373690083  0.0000
  O1     O1        0.220944736154091    0.164921629811579    0.184672410806524  0.0000
  O3     O3        0.846127460068884    0.150972640370930    0.832544606112539  0.0000
  O3     O3        0.794506385926396    0.818188034915176    0.843222019305602  0.0000
  O3     O3        0.155244155941691    0.816739813327497    0.278935991392445  0.0000
  O1     O1        0.305951405000825    0.418698256085659    0.697611795861685  0.0000
  O3     O3        0.670151717568445    0.547522341579139    0.356012222945798  0.0000
  O3     O3        0.249919236290326    0.062432436113103    0.698849013635733  0.0000
  O3     O3        0.775277761810937    0.252097423403977    0.320823336073347  0.0000
  O1     O1        0.732499968903879    0.892885364271256    0.313726106751330  0.0000
  O3     O3        0.162377805673534    0.747485029333634    0.637929321089560  0.0000
  O3     O3        0.015583688955105    0.018377794373189    0.482861538115606  0.0000
  O1     O1        0.930674618012889    0.068091256937065    0.194605007162605  0.0000
  O2     O2        0.993542660740534    0.934629215903439    0.729966313641838  0.0000
  O3     O3        0.053240107202789    0.938519542045543    0.999178572236071  0.0000
