data_c00049.vasp
_audit_creation_method             Generated by GULP
_audit_author_name                 Salvador R. G. Balestra
_symmetry_space_group_name_H-M     'P 1             '
_symmetry_Int_Tables_number        1

loop_
_symmetry_equiv_pos_site_id
_symmetry_equiv_pos_as_xyz
_cell_length_a                        9.0072
_cell_length_b                        7.7636
_cell_length_c                        9.9990
_cell_angle_alpha                   89.6337
_cell_angle_beta                   105.1498
_cell_angle_gamma                   87.3149

loop_
_atom_site_label
_atom_site_type_symbol
_atom_site_fract_x
_atom_site_fract_y
_atom_site_fract_z
_atom_site_charge
  Ge     Ge        0.313819999999964    0.296860000000038    0.309830000000034  0.0000
  Ge     Ge        0.670302297551691    0.210722810302094    0.717471002794564  0.0000
  Ge     Ge        0.727004991631505    0.618965106071005    0.732754062625251  0.0000
  Ge     Ge        0.306216084318648    0.297805661189614    0.630317009098874  0.0000
  Ge     Ge        0.723321975463170    0.627975428346480    0.408852682692427  0.0000
  Ge     Ge        0.363395033443179    0.698798570118327    0.645276710545551  0.0000
  Ge     Ge        0.101616335920943    0.991023637308053    0.646733596839911  0.0000
  Ge     Ge        0.912564124372579    0.923237801824188    0.871688797586104  0.0000
  Si     Si        0.357255170616934    0.687320373715117    0.325190986369710  0.0000
  Si     Si        0.681107897972374    0.229037858865298    0.402313872374449  0.0000
  Si     Si        0.906840776249076    0.937281878258333    0.339744502936295  0.0000
  Si     Si        0.131275184661892    0.986747424097570    0.159600742411182  0.0000
  O1     O1        0.243913150592983    0.300705598419469    0.451289952654908  0.0000
  O3     O3        0.737686745794577    0.209907450155194    0.568587932320939  0.0000
  O1     O1        0.792578641058654    0.625365144772144    0.585061274535782  0.0000
  O3     O3        0.306215469829570    0.677075744585076    0.466295534018790  0.0000
  O3     O3        0.320829196359806    0.505857392741723    0.248721394117854  0.0000
  O1     O1        0.698653749257975    0.416657705230200    0.780549003278398  0.0000
  O3     O3        0.499749790493913    0.205919570211321    0.352641383641743  0.0000
  O1     O1        0.478468736118104    0.176246588082406    0.670734444101499  0.0000
  O1     O1        0.554151336814981    0.739362672009195    0.693862823888401  0.0000
  O3     O3        0.537839595453239    0.718281127343161    0.359852322636826  0.0000
  O3     O3        0.194486282050522    0.175245586649369    0.185734732776223  0.0000
  O1     O1        0.763191235574143    0.074772402625180    0.851068337111366  0.0000
  O1     O1        0.850747064725941    0.718817047182140    0.867585574093860  0.0000
  O2     O2        0.265543140964959    0.846576825332328    0.230978275980500  0.0000
  O1     O1        0.333907171670490    0.494801586413146    0.702273629777279  0.0000
  O3     O3        0.720677920652323    0.416279365934559    0.354615150687125  0.0000
  O1     O1        0.168663268963311    0.192893146562295    0.684194904700318  0.0000
  O2     O2        0.770114614242166    0.080855440206920    0.336529443823828  0.0000
  O3     O3        0.839616840849398    0.748828601660575    0.336422634968784  0.0000
  O1     O1        0.257209482917715    0.846206551977216    0.707889581512922  0.0000
  O3     O3        0.050628665722126    0.959930092868648    0.468861244270484  0.0000
  O2     O2        0.971325127344306    0.961451531022876    0.203611921244210  0.0000
  O1     O1        0.953430923829590    0.953280614820994    0.712736460900633  0.0000
  O3     O3        0.079699257324398    0.958259411226211    0.995715146518340  0.0000
