data_c00018.vasp
_audit_creation_method             Generated by GULP
_audit_author_name                 Salvador R. G. Balestra
_symmetry_space_group_name_H-M     'P 1             '
_symmetry_Int_Tables_number        1

loop_
_symmetry_equiv_pos_site_id
_symmetry_equiv_pos_as_xyz
_cell_length_a                        9.1527
_cell_length_b                        7.6810
_cell_length_c                       10.3004
_cell_angle_alpha                   88.7974
_cell_angle_beta                   106.8133
_cell_angle_gamma                   91.2301

loop_
_atom_site_label
_atom_site_type_symbol
_atom_site_fract_x
_atom_site_fract_y
_atom_site_fract_z
_atom_site_charge
  Ge     Ge        0.313819999999964    0.296860000000038    0.309830000000034  0.0000
  Ge     Ge        0.701046924207451    0.359088148122280    0.707023425756654  0.0000
  Ge     Ge        0.631958527324931    0.771193785770886    0.696304049780566  0.0000
  Ge     Ge        0.291220702012761    0.693001598211080    0.287539309729393  0.0000
  Ge     Ge        0.339446602759989    0.269104291987116    0.628155368857469  0.0000
  Ge     Ge        0.284888176244830    0.670265493449415    0.608235421235282  0.0000
  Ge     Ge        0.090806413002438    0.984561777249882    0.661571297539648  0.0000
  Ge     Ge        0.893003060979679    0.041827523581728    0.867146903897172  0.0000
  Si     Si        0.675403316550294    0.374474602612691    0.397022532947221  0.0000
  Si     Si        0.636901223641242    0.773527043309064    0.381731980601863  0.0000
  Si     Si        0.866944081348101    0.070015842021307    0.373803878999692  0.0000
  Si     Si        0.074991009548155    0.011026112040314    0.182701252777306  0.0000
  O1     O1        0.263645483166246    0.251435225576787    0.454966836451780  0.0000
  O3     O3        0.749114988833922    0.382722217869438    0.556936665942481  0.0000
  O3     O3        0.673554781890137    0.796107277859102    0.542268033910299  0.0000
  O1     O1        0.297877116928678    0.622459194037380    0.449023193014938  0.0000
  O1     O1        0.274423467991528    0.489769890759996    0.219144553237070  0.0000
  O1     O1        0.676019904549313    0.563051044187746    0.758734373258068  0.0000
  O3     O3        0.511159906435829    0.282170245695679    0.361330999601068  0.0000
  O1     O1        0.533122371180137    0.240967372271521    0.678745048429863  0.0000
  O1     O1        0.442312450856869    0.801316926702893    0.676573334362582  0.0000
  O3     O3        0.460572380500426    0.809715845383961    0.303754166809460  0.0000
  O3     O3        0.218358293327372    0.139363010938064    0.196099912355531  0.0000
  O1     O1        0.848950394564092    0.254290043101869    0.819317472270939  0.0000
  O1     O1        0.729929821136513    0.919389138194738    0.809238550934267  0.0000
  O3     O3        0.137253575360506    0.814854028427868    0.205133703999041  0.0000
  O1     O1        0.298249295367214    0.468578474964758    0.683044363377813  0.0000
  O2     O2        0.665021474333869    0.574852085594257    0.341109799997081  0.0000
  O1     O1        0.250997572970262    0.112008028766411    0.700262162267062  0.0000
  O2     O2        0.781434340732978    0.255528695378634    0.332276839297704  0.0000
  O2     O2        0.746893055068423    0.907862240819007    0.329859749420906  0.0000
  O1     O1        0.127286908867124    0.780510786176073    0.611902914247880  0.0000
  O3     O3        0.941386164953459    0.070839775870946    0.534604414611257  0.0000
  O2     O2        0.998780341362572    0.054247516002063    0.301665771511328  0.0000
  O1     O1        0.031967159241551    0.962821845210182    0.804757775911671  0.0000
  O3     O3        0.948733689546308    0.029387524249975    0.041652345732451  0.0000
