data_c00064.vasp
_audit_creation_method             Generated by GULP
_audit_author_name                 Salvador R. G. Balestra
_symmetry_space_group_name_H-M     'P 1             '
_symmetry_Int_Tables_number        1

loop_
_symmetry_equiv_pos_site_id
_symmetry_equiv_pos_as_xyz
_cell_length_a                        9.1338
_cell_length_b                        7.7755
_cell_length_c                       10.3576
_cell_angle_alpha                   89.7419
_cell_angle_beta                   107.8492
_cell_angle_gamma                   88.7225

loop_
_atom_site_label
_atom_site_type_symbol
_atom_site_fract_x
_atom_site_fract_y
_atom_site_fract_z
_atom_site_charge
  Ge     Ge        0.313819999999964    0.296860000000038    0.309830000000034  0.0000
  Ge     Ge        0.683372480893849    0.219930053124537    0.709190065213603  0.0000
  Ge     Ge        0.741027435834934    0.621931269023918    0.723827966247768  0.0000
  Ge     Ge        0.682903651363947    0.226767571180733    0.396441756240579  0.0000
  Ge     Ge        0.719117650168216    0.629189147661731    0.401179790320247  0.0000
  Ge     Ge        0.376986304124680    0.696113150490297    0.635089572274521  0.0000
  Ge     Ge        0.137891263113702    0.992206274866508    0.682505438859709  0.0000
  Ge     Ge        0.932285758607848    0.935586353167826    0.882401821436702  0.0000
  Si     Si        0.358496123871812    0.696083903295137    0.323122547935001  0.0000
  Si     Si        0.324798190391269    0.297381204646139    0.615763894279145  0.0000
  Si     Si        0.916274679306306    0.937235221200058    0.382321401105970  0.0000
  Si     Si        0.120941038122108    0.981910948958542    0.193071490268115  0.0000
  O3     O3        0.256654598439553    0.311994739313980    0.453374758892121  0.0000
  O1     O1        0.749007103654956    0.210185132161077    0.570302918123948  0.0000
  O1     O1        0.782789986579480    0.604852626914061    0.573656900525141  0.0000
  O3     O3        0.311309169236825    0.710203389892410    0.459983461390045  0.0000
  O3     O3        0.324973582321026    0.506972661062376    0.257948731984125  0.0000
  O1     O1        0.723435948430432    0.418912717699221    0.781154598900521  0.0000
  O1     O1        0.488972936894283    0.194243149369947    0.344323074888177  0.0000
  O3     O3        0.486477792755724    0.191506607146060    0.652676397269393  0.0000
  O1     O1        0.568955440000130    0.735366612991370    0.693585230776744  0.0000
  O3     O3        0.538558152723072    0.730422621972998    0.357698888457383  0.0000
  O3     O3        0.185512514942151    0.172159717095595    0.191577191500112  0.0000
  O1     O1        0.768841119258993    0.062041480434952    0.822795211413363  0.0000
  O1     O1        0.886323838580816    0.727465895168113    0.837221372261981  0.0000
  O2     O2        0.259638521488768    0.839610140877225    0.216275688750286  0.0000
  O3     O3        0.352031672546366    0.485173713798134    0.680169594277673  0.0000
  O1     O1        0.709417224746534    0.427389628913117    0.336970075805245  0.0000
  O3     O3        0.205469393018868    0.195050609040345    0.669711371462511  0.0000
  O3     O3        0.781635969891815    0.079962443022121    0.328402449459035  0.0000
  O3     O3        0.841877003158430    0.751828117441373    0.343752736852500  0.0000
  O1     O1        0.277923827051470    0.834573650296390    0.705785403273845  0.0000
  O3     O3        0.981938498031281    0.944735584319413    0.545229986287815  0.0000
  O2     O2        0.054202355507186    0.968541336666188    0.320579594258836  0.0000
  O1     O1        0.076458528813782    0.002712262388983    0.822668917010762  0.0000
  O3     O3        0.988678120786671    0.946236863217162    0.057319955748922  0.0000
