data_c00069.vasp
_audit_creation_method             Generated by GULP
_audit_author_name                 Salvador R. G. Balestra
_symmetry_space_group_name_H-M     'P 1             '
_symmetry_Int_Tables_number        1

loop_
_symmetry_equiv_pos_site_id
_symmetry_equiv_pos_as_xyz
_cell_length_a                        9.4473
_cell_length_b                        7.7757
_cell_length_c                       10.0966
_cell_angle_alpha                   83.0177
_cell_angle_beta                   112.1112
_cell_angle_gamma                   89.0541

loop_
_atom_site_label
_atom_site_type_symbol
_atom_site_fract_x
_atom_site_fract_y
_atom_site_fract_z
_atom_site_charge
  Ge     Ge        0.313819999999964    0.296860000000038    0.309830000000034  0.0000
  Ge     Ge        0.687461676035792    0.226541850254007    0.712879068817167  0.0000
  Ge     Ge        0.723538149983491    0.606319377212594    0.747223686107624  0.0000
  Ge     Ge        0.655963683741014    0.327269169886858    0.384959631221683  0.0000
  Ge     Ge        0.661933096044770    0.719010047355764    0.406073702098973  0.0000
  Ge     Ge        0.152809363079332    0.909195927291686    0.698602170804481  0.0000
  Ge     Ge        0.060392563815255    0.033451699049815    0.176331652728603  0.0000
  Ge     Ge        0.926796452843278    0.909746988479973    0.865065504048138  0.0000
  Si     Si        0.303453415061618    0.710673444783186    0.332835694526252  0.0000
  Si     Si        0.345995833821835    0.219800966743423    0.637264298045299  0.0000
  Si     Si        0.355300365117851    0.621321515996292    0.653095131017932  0.0000
  Si     Si        0.877494205049714    0.010805065879367    0.393394019770198  0.0000
  O3     O3        0.311552037417792    0.193959806224274    0.472145158897178  0.0000
  O1     O1        0.621186729639124    0.346143550179003    0.540542588104705  0.0000
  O1     O1        0.746354515691662    0.691423091953054    0.591380401582660  0.0000
  O2     O2        0.292463740153081    0.719655425965733    0.488684255112295  0.0000
  O3     O3        0.282037604215015    0.519211102443724    0.289684902490135  0.0000
  O1     O1        0.774514673296756    0.389456857049804    0.808500258520304  0.0000
  O1     O1        0.480888072974452    0.260393689685011    0.282664861862579  0.0000
  O3     O3        0.521813021905450    0.162798258385199    0.736858852553005  0.0000
  O3     O3        0.534965793539158    0.633991126152226    0.730147738850075  0.0000
  O3     O3        0.467463845663705    0.774524199561216    0.345262040609318  0.0000
  O1     O1        0.170405527228119    0.206434512404419    0.182752224016232  0.0000
  O1     O1        0.796508471302952    0.049815508755682    0.719748112521177  0.0000
  O1     O1        0.845499775016258    0.717288260796590    0.876524107946128  0.0000
  O3     O3        0.169289965525625    0.837979276873109    0.216282126923911  0.0000
  O2     O2        0.312385011091749    0.421485634910269    0.649357673798858  0.0000
  O1     O1        0.689384855538752    0.536824398288489    0.335379196979747  0.0000
  O3     O3        0.238013087716239    0.102695584385389    0.693721602863638  0.0000
  O3     O3        0.814482197480485    0.195004913282409    0.415651350401233  0.0000
  O3     O3        0.736415182298899    0.891633559412440    0.334670005021267  0.0000
  O3     O3        0.271735186792697    0.723914663043961    0.733449788396421  0.0000
  O3     O3        0.994865288438208    0.906504418690221    0.542116120176992  0.0000
  O3     O3        0.955174837934740    0.056468350289193    0.279765461072767  0.0000
  O1     O1        0.095843529875248    0.892227406461588    0.841661154706102  0.0000
  O1     O1        0.936420430488465    0.024063592561201    0.003435048675818  0.0000
