data_c00096.vasp
_audit_creation_method             Generated by GULP
_audit_author_name                 Salvador R. G. Balestra
_symmetry_space_group_name_H-M     'P 1             '
_symmetry_Int_Tables_number        1

loop_
_symmetry_equiv_pos_site_id
_symmetry_equiv_pos_as_xyz
_cell_length_a                        9.1494
_cell_length_b                        7.7582
_cell_length_c                       10.3605
_cell_angle_alpha                   88.5484
_cell_angle_beta                   107.1236
_cell_angle_gamma                   92.2861

loop_
_atom_site_label
_atom_site_type_symbol
_atom_site_fract_x
_atom_site_fract_y
_atom_site_fract_z
_atom_site_charge
  Ge     Ge        0.313819999999964    0.296860000000038    0.309830000000034  0.0000
  Ge     Ge        0.683917383568270    0.366472223966319    0.700008207650089  0.0000
  Ge     Ge        0.620379423437602    0.770468021798492    0.382009284975394  0.0000
  Ge     Ge        0.274340678306875    0.685738860689314    0.604887823464491  0.0000
  Ge     Ge        0.866000306426491    0.070147994611694    0.379049183075930  0.0000
  Ge     Ge        0.092500591883329    0.998685622304900    0.678277357929022  0.0000
  Ge     Ge        0.069365465338864    0.006680740740925    0.174408611810260  0.0000
  Ge     Ge        0.873259957622178    0.046268074789648    0.861888120293154  0.0000
  Si     Si        0.633318458938706    0.762439358660007    0.691045739295626  0.0000
  Si     Si        0.263770169436319    0.696551223006106    0.296657950871059  0.0000
  Si     Si        0.325685882291487    0.286175500784124    0.619018340111100  0.0000
  Si     Si        0.669323679509491    0.374966879676267    0.389748527194667  0.0000
  O3     O3        0.261140331491356    0.270059063511917    0.457027549328427  0.0000
  O3     O3        0.733118957192137    0.383667039585506    0.552076688739568  0.0000
  O3     O3        0.686706684936373    0.782631948954014    0.556450749391989  0.0000
  O3     O3        0.208559005981984    0.688029732025196    0.430657057985327  0.0000
  O3     O3        0.279374596138943    0.506679383426640    0.248576692643624  0.0000
  O3     O3        0.672877127360081    0.572398404616657    0.755324760671409  0.0000
  O3     O3        0.507853164989215    0.267352265602803    0.350354234236927  0.0000
  O3     O3        0.506676383119183    0.261934327529771    0.667623841877770  0.0000
  O3     O3        0.452687190884010    0.787932439912123    0.654288218883899  0.0000
  O3     O3        0.426511616545910    0.802361902788392    0.331443709453203  0.0000
  O1     O1        0.214505179361644    0.160841605879611    0.186988079582577  0.0000
  O1     O1        0.818095435529768    0.253798219608928    0.816037436574987  0.0000
  O3     O3        0.721214549245225    0.905144541491534    0.796196552342940  0.0000
  O3     O3        0.142373889881681    0.802731986380057    0.182329789287445  0.0000
  O3     O3        0.288141361109276    0.474465860623652    0.661498650951940  0.0000
  O3     O3        0.648794635539385    0.566602788563011    0.329374186279883  0.0000
  O3     O3        0.245242614450618    0.141095165905868    0.689052697339771  0.0000
  O3     O3        0.787528723416954    0.271747034551389    0.336556396982667  0.0000
  O1     O1        0.721910163077162    0.916361484204096    0.316459243248090  0.0000
  O1     O1        0.148432441152967    0.792733481940998    0.662578017263958  0.0000
  O1     O1        0.932404697600226    0.051394425671545    0.551976366177966  0.0000
  O1     O1        0.013862780358370    0.042857231344258    0.316256939579499  0.0000
  O1     O1        0.037167537389141    0.002500657987277    0.822971245030090  0.0000
  O1     O1        0.918167079844908    0.030180117524796    0.035180863553362  0.0000
