data_c00097.vasp
_audit_creation_method             Generated by GULP
_audit_author_name                 Salvador R. G. Balestra
_symmetry_space_group_name_H-M     'P 1             '
_symmetry_Int_Tables_number        1

loop_
_symmetry_equiv_pos_site_id
_symmetry_equiv_pos_as_xyz
_cell_length_a                        9.1979
_cell_length_b                        7.7173
_cell_length_c                       10.2843
_cell_angle_alpha                   85.3538
_cell_angle_beta                   108.6157
_cell_angle_gamma                   92.0139

loop_
_atom_site_label
_atom_site_type_symbol
_atom_site_fract_x
_atom_site_fract_y
_atom_site_fract_z
_atom_site_charge
  Ge     Ge        0.313819999999964    0.296860000000038    0.309830000000034  0.0000
  Ge     Ge        0.656245684143279    0.730505480901871    0.711312574953789  0.0000
  Ge     Ge        0.341952662932345    0.255645399943134    0.632988940834053  0.0000
  Ge     Ge        0.673259279421480    0.377266302267687    0.383086875441800  0.0000
  Ge     Ge        0.632993670175371    0.779071564766077    0.391814343465181  0.0000
  Ge     Ge        0.288821536100940    0.663200009180387    0.624518838816473  0.0000
  Ge     Ge        0.878068519126462    0.071991447129730    0.370244893401212  0.0000
  Ge     Ge        0.099505891871241    0.968856406591245    0.685680739075778  0.0000
  Si     Si        0.697653279820869    0.333142738001178    0.701474020538178  0.0000
  Si     Si        0.276892596567281    0.699645813291847    0.312706132589617  0.0000
  Si     Si        0.081400599179494    0.015934610368162    0.174409902443969  0.0000
  Si     Si        0.889112267583969    0.013111094462541    0.867921986596118  0.0000
  O1     O1        0.264553268679240    0.252523353687315    0.456367340043112  0.0000
  O3     O3        0.730904778194782    0.389452078610067    0.560788609441997  0.0000
  O1     O1        0.711840816755405    0.779630064128344    0.568452841581822  0.0000
  O3     O3        0.223721915201382    0.661092140718242    0.446139647476348  0.0000
  O3     O3        0.291438447288007    0.517499135956661    0.254516179759342  0.0000
  O3     O3        0.688850609375349    0.511684391951542    0.769213100542070  0.0000
  O1     O1        0.504161341762737    0.259940761218476    0.337536437561013  0.0000
  O3     O3        0.537122471081612    0.228988376912139    0.670282362394464  0.0000
  O1     O1        0.464427481796100    0.766164804040515    0.677927977208468  0.0000
  O3     O3        0.438265885061417    0.803393428203404    0.359863335950251  0.0000
  O3     O3        0.204501559932604    0.170257556379577    0.181713476436396  0.0000
  O2     O2        0.828251496410958    0.202711015122953    0.796952668933056  0.0000
  O3     O3        0.759653327432801    0.865146977789517    0.835386674329573  0.0000
  O2     O2        0.158553818911312    0.826061570302361    0.196833612068624  0.0000
  O1     O1        0.307238517963010    0.450086211665826    0.686729691760850  0.0000
  O1     O1        0.655798341371124    0.589654970519272    0.323388997405063  0.0000
  O1     O1        0.264308606740066    0.092300951612019    0.711113930321451  0.0000
  O1     O1        0.807283608735042    0.279587037235507    0.332411298883167  0.0000
  O1     O1        0.720863828267539    0.936907320492545    0.318414021258904  0.0000
  O1     O1        0.150894806368779    0.761434731983059    0.669444887053831  0.0000
  O1     O1        0.955962062381840    0.048836310488682    0.545989374054328  0.0000
  O3     O3        0.016981436960814    0.034508051498366    0.300212101161941  0.0000
  O3     O3        0.034673953936882    0.962918816255159    0.826173517236027  0.0000
  O2     O2        0.943898976439138    0.030651658105136    0.032056456897376  0.0000
