data_c00063.vasp
_audit_creation_method             Generated by GULP
_audit_author_name                 Salvador R. G. Balestra
_symmetry_space_group_name_H-M     'P 1             '
_symmetry_Int_Tables_number        1

loop_
_symmetry_equiv_pos_site_id
_symmetry_equiv_pos_as_xyz
_cell_length_a                        9.0523
_cell_length_b                        7.7898
_cell_length_c                       10.1862
_cell_angle_alpha                   87.7528
_cell_angle_beta                   105.8968
_cell_angle_gamma                   91.8887

loop_
_atom_site_label
_atom_site_type_symbol
_atom_site_fract_x
_atom_site_fract_y
_atom_site_fract_z
_atom_site_charge
  Ge     Ge        0.313819999999964    0.296860000000038    0.309830000000034  0.0000
  Ge     Ge        0.673390848169148    0.340651704334710    0.715108269596098  0.0000
  Ge     Ge        0.637397129285443    0.744134904250181    0.709091237254906  0.0000
  Ge     Ge        0.681053734911643    0.361614928532067    0.397348238466479  0.0000
  Ge     Ge        0.628916728933280    0.764704841740265    0.387776683791845  0.0000
  Ge     Ge        0.271059778555585    0.674189236911997    0.617724946592516  0.0000
  Ge     Ge        0.067975570959947    0.985964955645875    0.630550186688503  0.0000
  Ge     Ge        0.075868065506180    0.004756410479758    0.142522125082172  0.0000
  Si     Si        0.268783250798276    0.695271748069075    0.306644066817160  0.0000
  Si     Si        0.312941756618603    0.274583280109138    0.619565013708620  0.0000
  Si     Si        0.858660942718623    0.054515107888239    0.329336433699762  0.0000
  Si     Si        0.870035018693097    0.030454674523416    0.839585886300652  0.0000
  O3     O3        0.251105328856945    0.267103535907592    0.455238349609797  0.0000
  O1     O1        0.737400332893914    0.369727655738621    0.572189040245619  0.0000
  O1     O1        0.697154094177529    0.764382959334941    0.562562654980193  0.0000
  O3     O3        0.209970088129518    0.674062821239145    0.441087926014387  0.0000
  O3     O3        0.289156074787054    0.509546302357837    0.252367475943093  0.0000
  O1     O1        0.663521718732724    0.537740186541921    0.777573779280101  0.0000
  O1     O1        0.505380268124435    0.258206882880314    0.345690609782902  0.0000
  O3     O3        0.493657543928742    0.239170586280201    0.663151355227565  0.0000
  O1     O1        0.444743047035209    0.781167022138656    0.669210189213835  0.0000
  O3     O3        0.433079160332836    0.795326442670458    0.345698731703467  0.0000
  O1     O1        0.212737511035365    0.163413336739574    0.187118319891610  0.0000
  O3     O3        0.792789580675024    0.213108613247408    0.839101210901069  0.0000
  O3     O3        0.741548164646915    0.880881417025420    0.831519737918291  0.0000
  O3     O3        0.147814505549372    0.803899386639378    0.192578432697100  0.0000
  O3     O3        0.288970790666392    0.461888157400996    0.672670305286509  0.0000
  O1     O1        0.668811543879173    0.569720980164806    0.333306855633085  0.0000
  O3     O3        0.217536245808214    0.134705703304984    0.682974962863651  0.0000
  O3     O3        0.817200442626760    0.249579763217560    0.347960106894133  0.0000
  O3     O3        0.708285568684368    0.933353659236093    0.315057599123267  0.0000
  O1     O1        0.141365890750955    0.783940260009984    0.674129763266643  0.0000
  O3     O3        0.997303590451172    0.989539025631231    0.454800603386575  0.0000
  O3     O3        0.914764592888244    0.046059825429908    0.193902609289742  0.0000
  O3     O3        0.921505885237813    0.025426038319765    0.699429459313594  0.0000
  O3     O3        0.016600506514686    0.003746568041063    0.965638043425805  0.0000
