data_c00067.vasp
_audit_creation_method             Generated by GULP
_audit_author_name                 Salvador R. G. Balestra
_symmetry_space_group_name_H-M     'P 1             '
_symmetry_Int_Tables_number        1

loop_
_symmetry_equiv_pos_site_id
_symmetry_equiv_pos_as_xyz
_cell_length_a                        9.1734
_cell_length_b                        7.7382
_cell_length_c                       10.2437
_cell_angle_alpha                   88.0199
_cell_angle_beta                   106.5888
_cell_angle_gamma                   91.7306

loop_
_atom_site_label
_atom_site_type_symbol
_atom_site_fract_x
_atom_site_fract_y
_atom_site_fract_z
_atom_site_charge
  Ge     Ge        0.313819999999964    0.296860000000038    0.309830000000034  0.0000
  Ge     Ge        0.682152144196711    0.345197991933783    0.713542961540323  0.0000
  Ge     Ge        0.636778994794762    0.752359299458440    0.704809835040971  0.0000
  Ge     Ge        0.678976516806518    0.364541421826963    0.391706946512463  0.0000
  Ge     Ge        0.623454470688369    0.773068498309889    0.382166074745075  0.0000
  Ge     Ge        0.866642793883137    0.057454934900945    0.323120711502662  0.0000
  Ge     Ge        0.089697379343193    0.980859576391510    0.628690880994888  0.0000
  Ge     Ge        0.887718336401909    0.030887860099065    0.843226544476229  0.0000
  Si     Si        0.269627840865001    0.698317658437766    0.307601451457846  0.0000
  Si     Si        0.326239907786728    0.275756390962698    0.622346706359919  0.0000
  Si     Si        0.284706828270189    0.671731550997378    0.616225982699139  0.0000
  Si     Si        0.083738933071777    0.005686075154227    0.144738799840725  0.0000
  O3     O3        0.263550561179879    0.261821313276210    0.458898692438792  0.0000
  O1     O1        0.736440146265172    0.357430488478844    0.566549557192398  0.0000
  O1     O1        0.688667228264004    0.783362081677011    0.556515880962912  0.0000
  O2     O2        0.231941008973914    0.670574243044360    0.451460637193160  0.0000
  O3     O3        0.276068092297307    0.509738564395241    0.250158800647385  0.0000
  O1     O1        0.673875731612673    0.546049354081673    0.770595527987260  0.0000
  O1     O1        0.502483571168437    0.262750019100237    0.337103511831529  0.0000
  O3     O3        0.504499268425336    0.238783845992829    0.671580028661376  0.0000
  O3     O3        0.442554753686719    0.778188810360779    0.665110507223129  0.0000
  O3     O3        0.428794896792334    0.800296917173757    0.330569968770035  0.0000
  O3     O3        0.209016371639471    0.156575547855587    0.191198193399442  0.0000
  O1     O1        0.812888094807171    0.231741029601929    0.836065976863125  0.0000
  O1     O1        0.736453642018570    0.888230704685106    0.826706082626638  0.0000
  O2     O2        0.141025266919146    0.817096022602602    0.208274358729970  0.0000
  O2     O2        0.304867371167447    0.471785747953335    0.668355317899030  0.0000
  O1     O1        0.663064065973115    0.574461752925920    0.333171410709190  0.0000
  O3     O3        0.229566191729600    0.140681870824035    0.686316497523017  0.0000
  O1     O1        0.813823280807771    0.265116943131617    0.337418289289240  0.0000
  O1     O1        0.705716275041038    0.931685143183378    0.306776493673208  0.0000
  O3     O3        0.164700544946013    0.773686220869386    0.668157388060375  0.0000
  O1     O1        0.015444176879460    0.991566703352588    0.455575132712444  0.0000
  O3     O3        0.928701646225043    0.049466404659726    0.178662716327513  0.0000
  O1     O1        0.947501553306481    0.004105274173417    0.700306773077468  0.0000
  O3     O3        0.041540845274243    0.994523174613004    0.982054526958391  0.0000
