data_c00052.vasp
_audit_creation_method             Generated by GULP
_audit_author_name                 Salvador R. G. Balestra
_symmetry_space_group_name_H-M     'P 1             '
_symmetry_Int_Tables_number        1

loop_
_symmetry_equiv_pos_site_id
_symmetry_equiv_pos_as_xyz
_cell_length_a                        9.3373
_cell_length_b                        7.7808
_cell_length_c                       10.2973
_cell_angle_alpha                   85.7222
_cell_angle_beta                   110.0092
_cell_angle_gamma                   89.7053

loop_
_atom_site_label
_atom_site_type_symbol
_atom_site_fract_x
_atom_site_fract_y
_atom_site_fract_z
_atom_site_charge
  Ge     Ge        0.313819999999964    0.296860000000038    0.309830000000034  0.0000
  Ge     Ge        0.730739356517185    0.270087266932247    0.704897408506413  0.0000
  Ge     Ge        0.688974641689879    0.692207123724748    0.712372608717984  0.0000
  Ge     Ge        0.369196117955049    0.234374602887880    0.643566471603140  0.0000
  Ge     Ge        0.659436896154274    0.725268970884730    0.393092136465588  0.0000
  Ge     Ge        0.873366357755920    0.030059962876379    0.338177993349410  0.0000
  Ge     Ge        0.137074520000137    0.939786108178258    0.646854416365331  0.0000
  Ge     Ge        0.950390242414771    0.944536196114544    0.862211629488315  0.0000
  Si     Si        0.318854653169663    0.679414209909349    0.321927758889117  0.0000
  Si     Si        0.674647041191871    0.318900871284732    0.386247869667474  0.0000
  Si     Si        0.351466278202421    0.628028765861211    0.632224885552601  0.0000
  Si     Si        0.106604804359777    0.995173338929888    0.180649025206451  0.0000
  O1     O1        0.309251588194651    0.214856844759732    0.466852456931017  0.0000
  O3     O3        0.714274300270027    0.221754920074892    0.538744193153516  0.0000
  O1     O1        0.690955784266671    0.789208849939321    0.556411598778853  0.0000
  O2     O2        0.390616260999452    0.610695433217905    0.488252570634682  0.0000
  O3     O3        0.242120395013131    0.509351742827691    0.254904279482078  0.0000
  O1     O1        0.756473262914173    0.483431340842674    0.730244579462970  0.0000
  O3     O3        0.495110713377528    0.310329402649445    0.304208646042176  0.0000
  O1     O1        0.561900859450405    0.205804017770241    0.722531774669029  0.0000
  O3     O3        0.509772370626742    0.696505635108721    0.731259757455108  0.0000
  O3     O3        0.467016129250652    0.742532007857469    0.289261476792917  0.0000
  O3     O3        0.206587116238149    0.163562813263103    0.190073500957473  0.0000
  O1     O1        0.885321645483615    0.154894558057241    0.816979086526289  0.0000
  O1     O1        0.799428422306567    0.811693584253725    0.839381996616721  0.0000
  O2     O2        0.200247828495441    0.840095207113758    0.294714139371144  0.0000
  O3     O3        0.317845911472557    0.436746212848090    0.678624088309561  0.0000
  O3     O3        0.725144662172578    0.514832504803075    0.403555732534052  0.0000
  O1     O1        0.278544808531940    0.081637671959560    0.711875737092123  0.0000
  O3     O3        0.762547731189152    0.218776342381653    0.305031051374465  0.0000
  O1     O1        0.762330456969983    0.853369311425524    0.318582824240420  0.0000
  O3     O3        0.208124350660418    0.750975501803592    0.607902793828804  0.0000
  O1     O1        0.008743431035408    0.036538568832844    0.498201930451879  0.0000
  O3     O3        0.953889094565055    0.039317460530822    0.209567404090075  0.0000
  O1     O1        0.053048029649160    0.876902863709731    0.764513390112069  0.0000
  O3     O3        0.071370952635699    0.924662721085548    0.032179374983138  0.0000
