data_c00016.vasp
_audit_creation_method             Generated by GULP
_audit_author_name                 Salvador R. G. Balestra
_symmetry_space_group_name_H-M     'P 1             '
_symmetry_Int_Tables_number        1

loop_
_symmetry_equiv_pos_site_id
_symmetry_equiv_pos_as_xyz
_cell_length_a                        9.0434
_cell_length_b                        7.7362
_cell_length_c                       10.2396
_cell_angle_alpha                   90.6485
_cell_angle_beta                   105.9124
_cell_angle_gamma                   88.1785

loop_
_atom_site_label
_atom_site_type_symbol
_atom_site_fract_x
_atom_site_fract_y
_atom_site_fract_z
_atom_site_charge
  Ge     Ge        0.313819999999964    0.296860000000038    0.309830000000034  0.0000
  Ge     Ge        0.669296536448273    0.216024579481084    0.716310306168638  0.0000
  Ge     Ge        0.729624157382226    0.625095432030460    0.730822654122890  0.0000
  Ge     Ge        0.355579640660391    0.697448913948761    0.327646887797341  0.0000
  Ge     Ge        0.305585212629830    0.304028453765747    0.627322955919906  0.0000
  Ge     Ge        0.363567961326963    0.708787807359754    0.647207180282497  0.0000
  Ge     Ge        0.912564315004988    0.930152279813090    0.400696940063225  0.0000
  Ge     Ge        0.921270963133554    0.934734113051395    0.891827882850702  0.0000
  Si     Si        0.672597030977277    0.224178918683706    0.407318525967289  0.0000
  Si     Si        0.716122850065546    0.621442790404741    0.419195296228450  0.0000
  Si     Si        0.125561719181583    0.995740995736521    0.696612852062863  0.0000
  Si     Si        0.117840051748630    0.983647632487872    0.195976623883838  0.0000
  O1     O1        0.256801187761697    0.327879232166460    0.454675861628978  0.0000
  O3     O3        0.728875439351548    0.197829913013936    0.569225924720483  0.0000
  O3     O3        0.782870424517380    0.615476077625260    0.580978106681779  0.0000
  O1     O1        0.296968560435769    0.715236770701022    0.473146227848102  0.0000
  O1     O1        0.320796962385491    0.499238800723667    0.248758188727284  0.0000
  O1     O1        0.707005077831189    0.420753170770779    0.781615092397957  0.0000
  O3     O3        0.492342086208470    0.188862403922358    0.352406099379385  0.0000
  O1     O1        0.475874491919611    0.186596443833734    0.677017298256338  0.0000
  O1     O1        0.557386877917113    0.739436917865726    0.701021267344220  0.0000
  O3     O3        0.552283184846159    0.723204877963275    0.379252998629108  0.0000
  O3     O3        0.182820037348327    0.174051038044768    0.194620823099880  0.0000
  O1     O1        0.762209512361628    0.066108373511369    0.832263889345125  0.0000
  O1     O1        0.871028809171635    0.726033501111205    0.849906024300613  0.0000
  O3     O3        0.260256598714002    0.848233722758796    0.209391101346112  0.0000
  O1     O1        0.326224642726792    0.506367804890455    0.698425083778413  0.0000
  O2     O2        0.693908690409867    0.423214348807998    0.366008126789531  0.0000
  O3     O3        0.163113795189746    0.191039151823150    0.667963176071531  0.0000
  O3     O3        0.774389258519094    0.093788850774982    0.343760530679300  0.0000
  O3     O3        0.829775900179289    0.729500500768039    0.357880220232279  0.0000
  O3     O3        0.274667467188030    0.870672573990519    0.717035818039641  0.0000
  O3     O3        0.985747127483009    0.927878857166859    0.575110612298948  0.0000
  O3     O3        0.061062521499278    0.958575352906830    0.331056543991242  0.0000
  O3     O3        0.072617739956447    0.997899554134560    0.833616465227736  0.0000
  O3     O3        0.977397911552688    0.949909924126947    0.067138792285523  0.0000
