data_c00111.vasp
_audit_creation_method             Generated by GULP
_audit_author_name                 Salvador R. G. Balestra
_symmetry_space_group_name_H-M     'P 1             '
_symmetry_Int_Tables_number        1

loop_
_symmetry_equiv_pos_site_id
_symmetry_equiv_pos_as_xyz
_cell_length_a                        9.2326
_cell_length_b                        7.7647
_cell_length_c                       10.2319
_cell_angle_alpha                   83.9864
_cell_angle_beta                   108.1693
_cell_angle_gamma                   91.9065

loop_
_atom_site_label
_atom_site_type_symbol
_atom_site_fract_x
_atom_site_fract_y
_atom_site_fract_z
_atom_site_charge
  Ge     Ge        0.313819999999964    0.296860000000038    0.309830000000034  0.0000
  Ge     Ge        0.650567136125251    0.685098170166530    0.723708584161185  0.0000
  Ge     Ge        0.341302338287236    0.214419849015156    0.630647499143166  0.0000
  Ge     Ge        0.282598935650503    0.623640130339212    0.635240335046765  0.0000
  Ge     Ge        0.858621775285448    0.048866746843466    0.403312940645946  0.0000
  Ge     Ge        0.106650798046340    0.922413427889956    0.704786630287155  0.0000
  Ge     Ge        0.063976951881155    0.022290300188030    0.189257048953666  0.0000
  Ge     Ge        0.883462097934113    0.979670805662991    0.872548400524184  0.0000
  Si     Si        0.681113308998507    0.297695801663200    0.706908388747066  0.0000
  Si     Si        0.271139676129660    0.701993183296798    0.325964986749794  0.0000
  Si     Si        0.652735309487908    0.369745856174781    0.390877126403476  0.0000
  Si     Si        0.624765979652218    0.754199105557850    0.401869996975188  0.0000
  O1     O1        0.317791613533399    0.178105543862346    0.462994328442090  0.0000
  O2     O2        0.617416727821477    0.335619503288292    0.538160861717570  0.0000
  O3     O3        0.660758265448141    0.773334085273307    0.563962874534043  0.0000
  O3     O3        0.253634014128716    0.734129247443129    0.472464280842797  0.0000
  O3     O3        0.242022367836890    0.501741008898053    0.303735242467418  0.0000
  O3     O3        0.732482105838089    0.479946575474959    0.765892139074652  0.0000
  O3     O3        0.491702627203854    0.320773652399657    0.284582020456265  0.0000
  O3     O3        0.529391671628987    0.221055765658739    0.737187966124991  0.0000
  O1     O1        0.468530697956119    0.662465393088085    0.729153755488743  0.0000
  O2     O2        0.443319861744272    0.755956973395471    0.327556267856799  0.0000
  O1     O1        0.194132931310927    0.184756297307595    0.184400512656687  0.0000
  O3     O3        0.817241662146604    0.164874527522332    0.759964833221260  0.0000
  O1     O1        0.752374547447892    0.815799995214961    0.843148436566884  0.0000
  O3     O3        0.151634917980968    0.821931458318201    0.209012176278381  0.0000
  O1     O1        0.252225708854813    0.406343818091521    0.629314618459775  0.0000
  O2     O2        0.692145827275677    0.574704052130322    0.374293375201087  0.0000
  O1     O1        0.263289862823097    0.046435802455598    0.707520461876086  0.0000
  O3     O3        0.789064588686474    0.260159941794663    0.380038595300911  0.0000
  O3     O3        0.706329928678479    0.910943416860110    0.338878332345632  0.0000
  O1     O1        0.154890983586371    0.712029653867700    0.698362899989410  0.0000
  O1     O1        0.944413352124718    0.989757338347690    0.574131012506686  0.0000
  O1     O1        0.992169694894824    0.051570700734690    0.321470080007791  0.0000
  O1     O1        0.051992672288033    0.927153890460396    0.850303418921163  0.0000
  O1     O1        0.917257435433274    0.030575212790581    0.038337369119797  0.0000
