data_c00108.vasp
_audit_creation_method             Generated by GULP
_audit_author_name                 Salvador R. G. Balestra
_symmetry_space_group_name_H-M     'P 1             '
_symmetry_Int_Tables_number        1

loop_
_symmetry_equiv_pos_site_id
_symmetry_equiv_pos_as_xyz
_cell_length_a                        9.1266
_cell_length_b                        7.7917
_cell_length_c                       10.3257
_cell_angle_alpha                   86.5676
_cell_angle_beta                   106.4181
_cell_angle_gamma                   91.6654

loop_
_atom_site_label
_atom_site_type_symbol
_atom_site_fract_x
_atom_site_fract_y
_atom_site_fract_z
_atom_site_charge
  Ge     Ge        0.313819999999964    0.296860000000038    0.309830000000034  0.0000
  Ge     Ge        0.637024578479051    0.713246061393937    0.714112638156801  0.0000
  Ge     Ge        0.328112751208254    0.246725309379254    0.627986170100423  0.0000
  Ge     Ge        0.681311171135906    0.349927678942902    0.402110433059118  0.0000
  Ge     Ge        0.275252253236333    0.652515190133198    0.620526932446294  0.0000
  Ge     Ge        0.088751803196710    0.957876456214125    0.688094745458923  0.0000
  Ge     Ge        0.076943821505314    0.002570370725710    0.192612326740021  0.0000
  Ge     Ge        0.872821161088589    0.001132295538622    0.880496548753101  0.0000
  Si     Si        0.683355817138719    0.315850986382756    0.710536366017241  0.0000
  Si     Si        0.293352715984916    0.692339004961903    0.316088782760671  0.0000
  Si     Si        0.649894199982115    0.744095446140781    0.411679837397917  0.0000
  Si     Si        0.874491920360726    0.040406086978927    0.395023076595219  0.0000
  O1     O1        0.260818415702922    0.247956978517157    0.454872826194645  0.0000
  O3     O3        0.737032372985150    0.349233210464635    0.576187378841658  0.0000
  O3     O3        0.705751218219221    0.745583130340276    0.573767058827082  0.0000
  O3     O3        0.230537152972164    0.658535428931576    0.445644654056970  0.0000
  O3     O3        0.294771958696396    0.511009564784362    0.252360979501837  0.0000
  O3     O3        0.659608713228829    0.497363922321857    0.767251431794514  0.0000
  O1     O1        0.505118182431708    0.258643966365816    0.340872266413781  0.0000
  O3     O3        0.522864804441357    0.212580256846221    0.670976528012288  0.0000
  O1     O1        0.447682291469657    0.757123644335497    0.680491195965936  0.0000
  O2     O2        0.466488790035616    0.769838596437571    0.367982011624615  0.0000
  O1     O1        0.196021029115391    0.176175026698816    0.189238257987160  0.0000
  O3     O3        0.807251860633050    0.204571381518883    0.820828720113380  0.0000
  O1     O1        0.738290856648384    0.841819313089615    0.836156106648740  0.0000
  O3     O3        0.188931688700847    0.822568192255543    0.207179224018305  0.0000
  O1     O1        0.288729660987473    0.442006652523878    0.679017671612551  0.0000
  O3     O3        0.685769568359791    0.567235202973345    0.354597412463508  0.0000
  O1     O1        0.248822173172256    0.084561650329158    0.703777312914335  0.0000
  O3     O3        0.806886724192862    0.230035899049852    0.347159097160842  0.0000
  O2     O2        0.734873812116947    0.900891345762536    0.351919250203112  0.0000
  O1     O1        0.134155734622067    0.751646673461061    0.664848451156175  0.0000
  O3     O3        0.938526593737713    0.035847216935360    0.557020002576383  0.0000
  O3     O3        0.009991549744772    0.999442573086987    0.334365034616322  0.0000
  O1     O1        0.032355478221712    0.958752812131605    0.832338323283351  0.0000
  O1     O1        0.924997164461764    0.002880011491019    0.053899082490721  0.0000
