data_c00106.vasp
_audit_creation_method             Generated by GULP
_audit_author_name                 Salvador R. G. Balestra
_symmetry_space_group_name_H-M     'P 1             '
_symmetry_Int_Tables_number        1

loop_
_symmetry_equiv_pos_site_id
_symmetry_equiv_pos_as_xyz
_cell_length_a                        9.1605
_cell_length_b                        7.7895
_cell_length_c                       10.3448
_cell_angle_alpha                   85.9116
_cell_angle_beta                   108.1318
_cell_angle_gamma                   92.1048

loop_
_atom_site_label
_atom_site_type_symbol
_atom_site_fract_x
_atom_site_fract_y
_atom_site_fract_z
_atom_site_charge
  Ge     Ge        0.313819999999964    0.296860000000038    0.309830000000034  0.0000
  Ge     Ge        0.654643199403114    0.720746771199372    0.707524495439938  0.0000
  Ge     Ge        0.347596348377873    0.249736799781883    0.632298318983189  0.0000
  Ge     Ge        0.683307583733157    0.361081423810284    0.392540730379905  0.0000
  Ge     Ge        0.291160378733245    0.653286460669597    0.622965288345350  0.0000
  Ge     Ge        0.880441063227089    0.048485262420271    0.384295818431659  0.0000
  Ge     Ge        0.109628212927597    0.959674998336172    0.690338428350247  0.0000
  Ge     Ge        0.896575851049062    0.005866527269852    0.877885821323575  0.0000
  Si     Si        0.704019670663858    0.321398451956174    0.705448948375313  0.0000
  Si     Si        0.288006635767083    0.690002127860397    0.315178916954485  0.0000
  Si     Si        0.646760193326468    0.754340123223396    0.401258278658055  0.0000
  Si     Si        0.085830751819507    0.003889478968482    0.189349890006109  0.0000
  O1     O1        0.268498714109817    0.253404064266165    0.457612709028278  0.0000
  O3     O3        0.750926079665196    0.350035479823938    0.568858619549665  0.0000
  O3     O3        0.715731964245094    0.760318243183240    0.564902611223054  0.0000
  O3     O3        0.231853702604205    0.653048363145045    0.446225885216047  0.0000
  O3     O3        0.282786732459728    0.511047335115336    0.247759568951840  0.0000
  O3     O3        0.682156942592724    0.504014626443427    0.759295361104155  0.0000
  O1     O1        0.505081870893592    0.265413497550790    0.337352095128316  0.0000
  O3     O3        0.542288887876812    0.217260313249989    0.670030064117582  0.0000
  O1     O1        0.464549574650752    0.760761310475771    0.676918059888394  0.0000
  O2     O2        0.462500223129245    0.765890744808970    0.368213065681799  0.0000
  O3     O3        0.198607338731989    0.166915570524520    0.189033286451957  0.0000
  O3     O3        0.832208721575921    0.210559991018343    0.816915220304620  0.0000
  O1     O1        0.759001942540335    0.848578369851289    0.830937467654356  0.0000
  O2     O2        0.183745006123276    0.829677796281163    0.207369456030354  0.0000
  O1     O1        0.310983514729446    0.443281634276183    0.685565381527942  0.0000
  O3     O3        0.681210077554705    0.577796499398771    0.344979153601156  0.0000
  O1     O1        0.271969110528599    0.085035168526892    0.708466641558242  0.0000
  O1     O1        0.806227327492178    0.250994481570441    0.335089475773926  0.0000
  O3     O3        0.723337102573988    0.907561148826571    0.334395547013957  0.0000
  O1     O1        0.153471550392891    0.753047855631166    0.667865200314342  0.0000
  O1     O1        0.958410336520207    0.037828059830271    0.557831129525958  0.0000
  O3     O3        0.023103140970581    0.005071015042625    0.318346822406724  0.0000
  O1     O1        0.055280514037185    0.960307764125706    0.834481115998528  0.0000
  O3     O3        0.945094871223847    0.007438567483254    0.053851504662185  0.0000
