data_c00105.vasp
_audit_creation_method             Generated by GULP
_audit_author_name                 Salvador R. G. Balestra
_symmetry_space_group_name_H-M     'P 1             '
_symmetry_Int_Tables_number        1

loop_
_symmetry_equiv_pos_site_id
_symmetry_equiv_pos_as_xyz
_cell_length_a                        9.1613
_cell_length_b                        7.8284
_cell_length_c                       10.2000
_cell_angle_alpha                   86.4739
_cell_angle_beta                   107.1177
_cell_angle_gamma                   91.6713

loop_
_atom_site_label
_atom_site_type_symbol
_atom_site_fract_x
_atom_site_fract_y
_atom_site_fract_z
_atom_site_charge
  Ge     Ge        0.313819999999964    0.296860000000038    0.309830000000034  0.0000
  Ge     Ge        0.655033779422507    0.717265733986801    0.711920686822407  0.0000
  Ge     Ge        0.332245356710515    0.262272821968084    0.631033721351543  0.0000
  Ge     Ge        0.679845170456851    0.359034201596791    0.393251412710224  0.0000
  Ge     Ge        0.287913100719122    0.669021621479469    0.625235583696188  0.0000
  Ge     Ge        0.875564922830313    0.044826797733484    0.385425253813283  0.0000
  Ge     Ge        0.098001894656005    0.973004880022917    0.694726453147890  0.0000
  Ge     Ge        0.083240744048479    0.003366835398982    0.179222234293276  0.0000
  Si     Si        0.692554732435389    0.321420944465075    0.706786341540146  0.0000
  Si     Si        0.288662496050761    0.694273033388511    0.313981813159748  0.0000
  Si     Si        0.644129735001805    0.750333787895286    0.400287483992626  0.0000
  Si     Si        0.879719948100909    0.007414862321196    0.875115844239495  0.0000
  O1     O1        0.257758723852790    0.252953873414636    0.455499816516254  0.0000
  O3     O3        0.744927517553879    0.354333760098365    0.571335804621275  0.0000
  O3     O3        0.713170684274127    0.749178290321786    0.565434105595403  0.0000
  O3     O3        0.227692944513513    0.678510782240353    0.446601929470786  0.0000
  O3     O3        0.289007631802260    0.510912403713949    0.255032879546035  0.0000
  O3     O3        0.685088820430274    0.503352849690333    0.770087529549061  0.0000
  O1     O1        0.504460955046160    0.260396726619268    0.341952894982661  0.0000
  O3     O3        0.526253675432366    0.232977617553190    0.666527602513355  0.0000
  O1     O1        0.466566319245523    0.760598415303345    0.684564711371878  0.0000
  O2     O2        0.461667332762015    0.770603367760321    0.369003161538132  0.0000
  O1     O1        0.203373148123745    0.175947042146303    0.183048174957845  0.0000
  O2     O2        0.809418385443879    0.191694574581523    0.812555393016548  0.0000
  O3     O3        0.761559752692750    0.852203634616896    0.830975708395749  0.0000
  O3     O3        0.188096968004151    0.818983890525010    0.194601686559628  0.0000
  O1     O1        0.296567109658496    0.457840818823813    0.681058828047817  0.0000
  O3     O3        0.675060249745537    0.573117820135024    0.340943876165682  0.0000
  O1     O1        0.255620380983353    0.103860898619436    0.712520069113594  0.0000
  O1     O1        0.802495975794836    0.246865459040210    0.334745256429044  0.0000
  O3     O3        0.721972081532006    0.902066589454982    0.334200544621839  0.0000
  O1     O1        0.154631688265839    0.770017568973340    0.677932736719227  0.0000
  O1     O1        0.946593677870830    0.039461147801982    0.560977026835053  0.0000
  O1     O1        0.019138924163334    0.999343856366762    0.321772773475656  0.0000
  O3     O3        0.036143316719358    0.975613085318186    0.839708231051623  0.0000
  O3     O3        0.924418617864640    0.012700786420534    0.039177441553743  0.0000
