data_c00123.vasp
_audit_creation_method             Generated by GULP
_audit_author_name                 Salvador R. G. Balestra
_symmetry_space_group_name_H-M     'P 1             '
_symmetry_Int_Tables_number        1

loop_
_symmetry_equiv_pos_site_id
_symmetry_equiv_pos_as_xyz
_cell_length_a                        9.2049
_cell_length_b                        7.6812
_cell_length_c                       10.3443
_cell_angle_alpha                   91.8270
_cell_angle_beta                   107.8487
_cell_angle_gamma                   87.9466

loop_
_atom_site_label
_atom_site_type_symbol
_atom_site_fract_x
_atom_site_fract_y
_atom_site_fract_z
_atom_site_charge
  Ge     Ge        0.313819999999964    0.296860000000038    0.309830000000034  0.0000
  Ge     Ge        0.369227114018340    0.712297180756421    0.319949047896424  0.0000
  Ge     Ge        0.336562138770843    0.310497623586823    0.632486140280182  0.0000
  Ge     Ge        0.674737371051429    0.220224275341513    0.393604699976935  0.0000
  Ge     Ge        0.389634699546946    0.721255857405543    0.641493716954180  0.0000
  Ge     Ge        0.925060761386010    0.923856271297515    0.388856899446365  0.0000
  Ge     Ge        0.147912178095464    0.004746138197482    0.700493226400297  0.0000
  Ge     Ge        0.113718834010944    0.983336120559518    0.171541443527110  0.0000
  Si     Si        0.697912773390178    0.239681064976332    0.705906222214693  0.0000
  Si     Si        0.743262013838982    0.635047281260738    0.709041581840228  0.0000
  Si     Si        0.718907986487822    0.623792121328430    0.400559415226940  0.0000
  Si     Si        0.924248959970698    0.948310632276395    0.867809525956889  0.0000
  O1     O1        0.267054655579037    0.298498275679679    0.458565494437811  0.0000
  O3     O3        0.742712067802530    0.207226987747879    0.569388809394417  0.0000
  O2     O2        0.774801003527561    0.611898608660229    0.565221998689206  0.0000
  O1     O1        0.322084387329548    0.742561271518644    0.468329264416517  0.0000
  O1     O1        0.331223388115516    0.501365942978340    0.261452414609543  0.0000
  O2     O2        0.739813229935544    0.439184788408798    0.763787119982849  0.0000
  O1     O1        0.484778579618723    0.178855000532083    0.339577516200909  0.0000
  O3     O3        0.519632691421954    0.214159319534766    0.678806309250196  0.0000
  O3     O3        0.585634081251942    0.737325821134183    0.693172865849825  0.0000
  O3     O3        0.563827194441465    0.740939932091704    0.357794687842999  0.0000
  O1     O1        0.173699774683779    0.192597502129778    0.185881943475211  0.0000
  O2     O2        0.795798762742363    0.099658644420692    0.813064628262878  0.0000
  O2     O2        0.873256760125875    0.754024021103870    0.809727866786581  0.0000
  O1     O1        0.271746492777869    0.846921425349553    0.193392542186450  0.0000
  O1     O1        0.346259778563009    0.521842997253483    0.687097707789250  0.0000
  O3     O3        0.691738532075511    0.429990819234524    0.340863698856097  0.0000
  O1     O1        0.210316377062178    0.211270861817430    0.694719103151157  0.0000
  O1     O1        0.785240302633864    0.082911716146151    0.329658188520924  0.0000
  O3     O3        0.844686745695787    0.718733215816571    0.354438420256719  0.0000
  O1     O1        0.310317195515175    0.877588152548703    0.720031719638748  0.0000
  O1     O1        0.002462134879738    0.944837852853103    0.561582402113349  0.0000
  O1     O1        0.061540585140619    0.934003690496982    0.312511818063318  0.0000
  O3     O3        0.080740622320600    0.991830862764808    0.839313718286923  0.0000
  O3     O3        0.961919239963162    0.944999085792307    0.029370629000852  0.0000
