data_c00124.vasp
_audit_creation_method             Generated by GULP
_audit_author_name                 Salvador R. G. Balestra
_symmetry_space_group_name_H-M     'P 1             '
_symmetry_Int_Tables_number        1

loop_
_symmetry_equiv_pos_site_id
_symmetry_equiv_pos_as_xyz
_cell_length_a                        9.1573
_cell_length_b                        7.7641
_cell_length_c                       10.3267
_cell_angle_alpha                   88.2816
_cell_angle_beta                   108.2382
_cell_angle_gamma                   92.3296

loop_
_atom_site_label
_atom_site_type_symbol
_atom_site_fract_x
_atom_site_fract_y
_atom_site_fract_z
_atom_site_charge
  Ge     Ge        0.313819999999964    0.296860000000038    0.309830000000034  0.0000
  Ge     Ge        0.274069716686868    0.702935848833925    0.300471044496374  0.0000
  Ge     Ge        0.345098600610055    0.282491738776667    0.631010325811447  0.0000
  Ge     Ge        0.681699056291428    0.374718589751224    0.396488599327380  0.0000
  Ge     Ge        0.291169712332169    0.683670158644007    0.623095926362861  0.0000
  Ge     Ge        0.880812302018220    0.064765139184874    0.383289875329955  0.0000
  Ge     Ge        0.110664208365300    0.993922436301274    0.692365207296778  0.0000
  Ge     Ge        0.886323133284289    0.048719533119219    0.869362231931821  0.0000
  Si     Si        0.704864906299191    0.362584948810663    0.704614745489674  0.0000
  Si     Si        0.649472517343436    0.755785283912912    0.696828393522178  0.0000
  Si     Si        0.632356062666355    0.775717184408968    0.389809955315356  0.0000
  Si     Si        0.071844805539808    0.010307475182156    0.177353026660649  0.0000
  O1     O1        0.263106407564951    0.275398354183038    0.456669158243174  0.0000
  O3     O3        0.761174904307555    0.370119598939362    0.572975402462456  0.0000
  O2     O2        0.691042243173881    0.783102828702065    0.555859670553925  0.0000
  O1     O1        0.226604014429026    0.683157604388761    0.448051309127233  0.0000
  O1     O1        0.279542891493049    0.502331734525261    0.241433006041969  0.0000
  O2     O2        0.684815272961542    0.557292888553980    0.748971044410919  0.0000
  O1     O1        0.506863815205896    0.266369020561914    0.348553957420411  0.0000
  O3     O3        0.540458749687649    0.262702359947504    0.666154939350569  0.0000
  O3     O3        0.471665752942761    0.787308259460001    0.671702646499708  0.0000
  O3     O3        0.452458074613673    0.810625330999251    0.336652808187986  0.0000
  O3     O3        0.206188557358102    0.154964884077601    0.188987099826738  0.0000
  O3     O3        0.823630696568176    0.255520068371067    0.823175866718874  0.0000
  O3     O3        0.749110570363452    0.888196813894971    0.805931406900511  0.0000
  O3     O3        0.142061288168584    0.823726889992093    0.179767532840811  0.0000
  O1     O1        0.305002308437421    0.476854527310871    0.685178588350862  0.0000
  O3     O3        0.658948640196589    0.586302882505889    0.342198525362748  0.0000
  O1     O1        0.274186379408643    0.119213614198827    0.708897679694121  0.0000
  O1     O1        0.804932206060861    0.265180577486011    0.336862884796740  0.0000
  O3     O3        0.729666341710625    0.913221176802941    0.331915449935075  0.0000
  O1     O1        0.161323456407212    0.786568160650946    0.678084062235214  0.0000
  O1     O1        0.960023164200976    0.059275277939729    0.556788423461256  0.0000
  O3     O3        0.020744185997309    0.023598621136883    0.312820871275098  0.0000
  O1     O1        0.051027914052892    0.010937858144974    0.833111235738093  0.0000
  O3     O3        0.928071882550590    0.038653229807373    0.045166885110886  0.0000
