data_c00116.vasp
_audit_creation_method             Generated by GULP
_audit_author_name                 Salvador R. G. Balestra
_symmetry_space_group_name_H-M     'P 1             '
_symmetry_Int_Tables_number        1

loop_
_symmetry_equiv_pos_site_id
_symmetry_equiv_pos_as_xyz
_cell_length_a                        9.0761
_cell_length_b                        7.7328
_cell_length_c                       10.2176
_cell_angle_alpha                   88.6353
_cell_angle_beta                   106.8162
_cell_angle_gamma                   92.0903

loop_
_atom_site_label
_atom_site_type_symbol
_atom_site_fract_x
_atom_site_fract_y
_atom_site_fract_z
_atom_site_charge
  Ge     Ge        0.313819999999964    0.296860000000038    0.309830000000034  0.0000
  Ge     Ge        0.265134732039588    0.707994825241608    0.301734455979792  0.0000
  Ge     Ge        0.319855902028178    0.288666400135227    0.627309245226584  0.0000
  Ge     Ge        0.677980378899858    0.377807783477081    0.397561697597613  0.0000
  Ge     Ge        0.628774154883176    0.786872814753440    0.391740193698908  0.0000
  Ge     Ge        0.270948053751618    0.692435880074132    0.624113396586645  0.0000
  Ge     Ge        0.080331121572354    0.001483675884129    0.688640749139726  0.0000
  Ge     Ge        0.060215716318753    0.016563251242947    0.166891190436539  0.0000
  Si     Si        0.682718953009656    0.368405501882076    0.704880768498337  0.0000
  Si     Si        0.634950608339072    0.759634992041128    0.704080787310132  0.0000
  Si     Si        0.876145835260547    0.074866995945730    0.381734014876999  0.0000
  Si     Si        0.855788480034597    0.054242342701131    0.867331290908856  0.0000
  O1     O1        0.249804613644311    0.274370466581211    0.452631248004549  0.0000
  O3     O3        0.745260148593001    0.390365620458114    0.575105468085122  0.0000
  O3     O3        0.689606726344469    0.784697626351929    0.569344547582810  0.0000
  O1     O1        0.209371411042828    0.694518624362684    0.448762444053632  0.0000
  O1     O1        0.293554830318721    0.508122652386526    0.250827531210283  0.0000
  O2     O2        0.670918553369152    0.561488702603486    0.762431074237838  0.0000
  O1     O1        0.507378853153146    0.260334442477295    0.351433574796255  0.0000
  O3     O3        0.516666233942548    0.274540608324032    0.661127069712083  0.0000
  O3     O3        0.454992240770240    0.789692919374582    0.672537078579623  0.0000
  O1     O1        0.437231361989249    0.827581763493911    0.338334598429217  0.0000
  O1     O1        0.208488923830694    0.165549361830557    0.182008830150340  0.0000
  O2     O2        0.794388481330834    0.245420949328107    0.818345076458864  0.0000
  O2     O2        0.729838873219721    0.900144006704028    0.812936195367135  0.0000
  O1     O1        0.130808445699319    0.813852998386860    0.175092366761190  0.0000
  O1     O1        0.278458395797651    0.483748054026830    0.682270721648520  0.0000
  O1     O1        0.657881645241436    0.584647342910231    0.336008426503445  0.0000
  O1     O1        0.244065227883634    0.128550886761241    0.706761935659324  0.0000
  O3     O3        0.812035934593571    0.266976488132198    0.344433653414934  0.0000
  O3     O3        0.735243412876923    0.936079657125639    0.328383085446063  0.0000
  O1     O1        0.141157410585696    0.795226303725625    0.683981027018467  0.0000
  O3     O3        0.935928086770905    0.058592208391418    0.546162517295977  0.0000
  O3     O3        0.010548587889851    0.039576488685408    0.317745577882650  0.0000
  O3     O3        0.011701794462178    0.020923042381465    0.828530060261819  0.0000
  O3     O3        0.901111366024800    0.050505609161486    0.030678682829373  0.0000
