data_c00101.vasp
_audit_creation_method             Generated by GULP
_audit_author_name                 Salvador R. G. Balestra
_symmetry_space_group_name_H-M     'P 1             '
_symmetry_Int_Tables_number        1

loop_
_symmetry_equiv_pos_site_id
_symmetry_equiv_pos_as_xyz
_cell_length_a                        9.3047
_cell_length_b                        7.6974
_cell_length_c                       10.2220
_cell_angle_alpha                   83.3330
_cell_angle_beta                   109.3624
_cell_angle_gamma                   91.4041

loop_
_atom_site_label
_atom_site_type_symbol
_atom_site_fract_x
_atom_site_fract_y
_atom_site_fract_z
_atom_site_charge
  Ge     Ge        0.313819999999964    0.296860000000038    0.309830000000034  0.0000
  Ge     Ge        0.663568530849116    0.700370273315471    0.723831607528222  0.0000
  Ge     Ge        0.345910039382106    0.240164572745782    0.634655248980877  0.0000
  Ge     Ge        0.676474491462544    0.369658727965390    0.391593820021981  0.0000
  Ge     Ge        0.617985012228324    0.779761086202350    0.386487676817849  0.0000
  Ge     Ge        0.861005590381151    0.068893747677207    0.329397168013376  0.0000
  Ge     Ge        0.107695528957742    0.942077584076148    0.641392701762850  0.0000
  Ge     Ge        0.076961032667977    0.010567409373149    0.158103814155967  0.0000
  Si     Si        0.703205344492031    0.299747017729615    0.711471387242923  0.0000
  Si     Si        0.280909592696601    0.690739736784859    0.326172656292281  0.0000
  Si     Si        0.322046076826410    0.629908374512353    0.648977651380715  0.0000
  Si     Si        0.907905173459038    0.970345498988342    0.844172584285748  0.0000
  O1     O1        0.266796740969549    0.233207508531127    0.457365281857651  0.0000
  O3     O3        0.745006734696624    0.348435690592677    0.572439562408400  0.0000
  O1     O1        0.682085888059493    0.771124836803918    0.565422085171979  0.0000
  O2     O2        0.324074796745861    0.613404942008455    0.490505412482962  0.0000
  O3     O3        0.268979277667323    0.517696470166398    0.250785629164978  0.0000
  O3     O3        0.701666392281689    0.478446440260965    0.776900888811933  0.0000
  O1     O1        0.503883340295585    0.267097694330405    0.338797084591054  0.0000
  O3     O3        0.539540843080464    0.206509030577636    0.675138951985646  0.0000
  O3     O3        0.477614625481508    0.727576144075951    0.722055083097265  0.0000
  O3     O3        0.422181259746021    0.811536228600715    0.317152568487413  0.0000
  O1     O1        0.207934062458200    0.172726974249616    0.184530096083390  0.0000
  O2     O2        0.829177857087733    0.162884041409110    0.816328052132924  0.0000
  O3     O3        0.783089233654039    0.822114093404584    0.845532429792434  0.0000
  O3     O3        0.134543222188146    0.813856994675811    0.266765534776543  0.0000
  O3     O3        0.318778542428698    0.427377790653872    0.704476992064231  0.0000
  O1     O1        0.658678685881707    0.587488904441805    0.335080625289557  0.0000
  O1     O1        0.254629787501189    0.079447846859500    0.706224983647453  0.0000
  O1     O1        0.810798321519334    0.278785510072802    0.340217241586108  0.0000
  O1     O1        0.701049886264171    0.948349795598383    0.317836853869094  0.0000
  O3     O3        0.180658000113875    0.730736605993366    0.659017937327792  0.0000
  O1     O1        0.017306380351644    0.993601876477044    0.466928927072241  0.0000
  O1     O1        0.913886656302167    0.070732349974146    0.183786047077451  0.0000
  O3     O3        0.973252709549375    0.937457583647195    0.722215134092907  0.0000
  O3     O3        0.041478585647114    0.958611997762937    0.989861889274554  0.0000
