data_c00133.vasp
_audit_creation_method             Generated by GULP
_audit_author_name                 Salvador R. G. Balestra
_symmetry_space_group_name_H-M     'P 1             '
_symmetry_Int_Tables_number        1

loop_
_symmetry_equiv_pos_site_id
_symmetry_equiv_pos_as_xyz
_cell_length_a                        9.1388
_cell_length_b                        7.7520
_cell_length_c                       10.1699
_cell_angle_alpha                   89.9828
_cell_angle_beta                   106.4875
_cell_angle_gamma                   88.1763

loop_
_atom_site_label
_atom_site_type_symbol
_atom_site_fract_x
_atom_site_fract_y
_atom_site_fract_z
_atom_site_charge
  Ge     Ge        0.313819999999964    0.296860000000038    0.309830000000034  0.0000
  Ge     Ge        0.320121173441004    0.297683473759309    0.629000447900917  0.0000
  Ge     Ge        0.675080356288439    0.213084333849151    0.401405324110803  0.0000
  Ge     Ge        0.723660454010433    0.619323966268182    0.404436562872304  0.0000
  Ge     Ge        0.371395138178955    0.702305025724281    0.635330095734010  0.0000
  Ge     Ge        0.931342406838001    0.927637563764672    0.396787662027325  0.0000
  Ge     Ge        0.127814213125875    0.980461408435371    0.182957864210151  0.0000
  Ge     Ge        0.914652085756742    0.936543382067525    0.874926971915224  0.0000
  Si     Si        0.681971995786411    0.232426262891483    0.712499064561575  0.0000
  Si     Si        0.727600583701355    0.627451827137475    0.717623446108987  0.0000
  Si     Si        0.370068733790278    0.696179575354681    0.320335204544627  0.0000
  Si     Si        0.138933178111538    0.990218754967488    0.698302077117004  0.0000
  O1     O1        0.251185363344849    0.303171946275148    0.453664110316668  0.0000
  O3     O3        0.740490837213038    0.204729816840555    0.579634100257461  0.0000
  O3     O3        0.782249542598814    0.618946724309142    0.582400323067475  0.0000
  O3     O3        0.314002537603829    0.708905710988320    0.457560750398966  0.0000
  O3     O3        0.343344643375320    0.502340173056509    0.261668631877594  0.0000
  O2     O2        0.708052555062511    0.431074685500838    0.764650887400570  0.0000
  O1     O1        0.484738832990231    0.179978678632826    0.351924078677652  0.0000
  O3     O3        0.502026310271522    0.202010074732899    0.675394583319126  0.0000
  O3     O3        0.565500544793113    0.729383084979487    0.689844547219332  0.0000
  O3     O3        0.548795204358384    0.732016393388005    0.357306027379177  0.0000
  O1     O1        0.193161118054175    0.185314427286551    0.180241342756713  0.0000
  O3     O3        0.776094995458430    0.099039734236520    0.827504537981824  0.0000
  O3     O3        0.848644295345146    0.732469347446045    0.831379675687563  0.0000
  O3     O3        0.275620119519961    0.827079409559209    0.203821544352004  0.0000
  O1     O1        0.325844403803159    0.505571296077762    0.687010106610636  0.0000
  O1     O1        0.707620954630552    0.415206142096833    0.345451961913017  0.0000
  O3     O3        0.193877626657051    0.183875178164371    0.690114733159330  0.0000
  O1     O1        0.777294503628783    0.068146332833075    0.336375036345852  0.0000
  O1     O1        0.859051021323342    0.725953893017451    0.354590822415450  0.0000
  O3     O3        0.283842109414116    0.864388199317821    0.702280545337207  0.0000
  O3     O3        0.993957914831504    0.942956921268734    0.574243565054235  0.0000
  O1     O1        0.077621981429219    0.970068752124233    0.334450927377521  0.0000
  O3     O3        0.082448321417090    0.973161663716392    0.833485582954291  0.0000
  O1     O1        0.972834932231739    0.938257493850854    0.051350250749799  0.0000
