data_c00104.vasp
_audit_creation_method             Generated by GULP
_audit_author_name                 Salvador R. G. Balestra
_symmetry_space_group_name_H-M     'P 1             '
_symmetry_Int_Tables_number        1

loop_
_symmetry_equiv_pos_site_id
_symmetry_equiv_pos_as_xyz
_cell_length_a                        9.2431
_cell_length_b                        7.7869
_cell_length_c                       10.0419
_cell_angle_alpha                   83.2954
_cell_angle_beta                   107.9441
_cell_angle_gamma                   91.2464

loop_
_atom_site_label
_atom_site_type_symbol
_atom_site_fract_x
_atom_site_fract_y
_atom_site_fract_z
_atom_site_charge
  Ge     Ge        0.313819999999964    0.296860000000038    0.309830000000034  0.0000
  Ge     Ge        0.649643699299444    0.677885251951998    0.738891501608026  0.0000
  Ge     Ge        0.334745726717208    0.224631922345609    0.637485672302615  0.0000
  Ge     Ge        0.660123006740817    0.367691371888468    0.393081905599132  0.0000
  Ge     Ge        0.633788765527441    0.761230919367633    0.404403296545682  0.0000
  Ge     Ge        0.104790152547768    0.919553430429439    0.702705438092470  0.0000
  Ge     Ge        0.062800099505302    0.025468689084472    0.191279653046892  0.0000
  Ge     Ge        0.875947081301438    0.971940742596839    0.872975700126984  0.0000
  Si     Si        0.672696090414834    0.296661977101506    0.716075494330487  0.0000
  Si     Si        0.278527590345110    0.703351155568140    0.326954896122054  0.0000
  Si     Si        0.293810779872769    0.627716018234503    0.642254263193094  0.0000
  Si     Si        0.866688440019914    0.048556237919590    0.404896465460135  0.0000
  O1     O1        0.316239618962924    0.183851024337476    0.469496451402610  0.0000
  O3     O3        0.611308997402891    0.367510222883213    0.548480502179835  0.0000
  O1     O1        0.667527408441371    0.770176556561862    0.581185851058895  0.0000
  O2     O2        0.280787751017813    0.724228805464669    0.486559498742332  0.0000
  O3     O3        0.249499927932987    0.506739255758119    0.297177346710966  0.0000
  O3     O3        0.726513542970013    0.468951036167359    0.789837838304998  0.0000
  O1     O1        0.490122799422374    0.304146856718243    0.284604021246268  0.0000
  O3     O3        0.522869220466271    0.212437627717437    0.745365519260708  0.0000
  O3     O3        0.463710336824382    0.658626755759074    0.739978628580041  0.0000
  O3     O3        0.440963126861074    0.767147228981260    0.315031686780519  0.0000
  O1     O1        0.191906702590962    0.185165953681739    0.185544218949775  0.0000
  O3     O3        0.804270500643996    0.155378406725606    0.753689143462753  0.0000
  O1     O1        0.747352239245310    0.808515190172985    0.860219174194802  0.0000
  O3     O3        0.146446740557612    0.821981859797871    0.218332228430324  0.0000
  O3     O3        0.258513261084508    0.426937616323860    0.635555525417029  0.0000
  O1     O1        0.704281428227248    0.579931094237370    0.361948812054682  0.0000
  O1     O1        0.240760311257222    0.072435139779617    0.714348663929777  0.0000
  O3     O3        0.814445248275424    0.245802680911820    0.401448759770501  0.0000
  O3     O3        0.717643401840015    0.939162604747517    0.338509329414283  0.0000
  O3     O3        0.174570038157840    0.716035007970150    0.699640386325043  0.0000
  O3     O3        0.940278790139005    0.960984618443143    0.563637045571198  0.0000
  O3     O3        0.993179380495461    0.056118175687716    0.328036091510524  0.0000
  O1     O1        0.040250808690217    0.909602600541088    0.846440931838737  0.0000
  O1     O1        0.916951256449979    0.036129640825149    0.038255649036437  0.0000
