data_c00128.vasp
_audit_creation_method             Generated by GULP
_audit_author_name                 Salvador R. G. Balestra
_symmetry_space_group_name_H-M     'P 1             '
_symmetry_Int_Tables_number        1

loop_
_symmetry_equiv_pos_site_id
_symmetry_equiv_pos_as_xyz
_cell_length_a                        9.2641
_cell_length_b                        7.7770
_cell_length_c                       10.4421
_cell_angle_alpha                   86.1452
_cell_angle_beta                   109.7049
_cell_angle_gamma                   90.5775

loop_
_atom_site_label
_atom_site_type_symbol
_atom_site_fract_x
_atom_site_fract_y
_atom_site_fract_z
_atom_site_charge
  Ge     Ge        0.313819999999964    0.296860000000038    0.309830000000034  0.0000
  Ge     Ge        0.259536354575129    0.719366841697114    0.311301892693048  0.0000
  Ge     Ge        0.345765331688252    0.271312271556198    0.627505170146512  0.0000
  Ge     Ge        0.628675548029093    0.768483439618309    0.382887834866834  0.0000
  Ge     Ge        0.867686989091784    0.062007629473036    0.384442076246310  0.0000
  Ge     Ge        0.127111605696988    0.968553562422800    0.690525388925941  0.0000
  Ge     Ge        0.049773280440689    0.042342776286032    0.163319939740284  0.0000
  Ge     Ge        0.884987483996934    0.017896404239757    0.840949501118479  0.0000
  Si     Si        0.683796895233667    0.342340753420423    0.691269412624903  0.0000
  Si     Si        0.669533228270469    0.722956674860076    0.696819250190811  0.0000
  Si     Si        0.650848098160153    0.375189690400599    0.383958007322952  0.0000
  Si     Si        0.306716145128999    0.679657317174515    0.619275422128294  0.0000
  O1     O1        0.312147996550022    0.208000026793276    0.465720198192206  0.0000
  O2     O2        0.611480215286886    0.387133779488718    0.526300473305799  0.0000
  O3     O3        0.697443114121509    0.789375456484164    0.558249305814077  0.0000
  O3     O3        0.236520460585577    0.761334117160174    0.465015807225051  0.0000
  O1     O1        0.246050193587579    0.505635947758377    0.286038454335497  0.0000
  O2     O2        0.739275948887414    0.528612379267325    0.751794360377964  0.0000
  O3     O3        0.493715028135040    0.296721222795591    0.289480825033179  0.0000
  O3     O3        0.539600708739703    0.264785776735882    0.727282948191698  0.0000
  O2     O2        0.488836135461414    0.714052453972651    0.669653616995443  0.0000
  O1     O1        0.435046536487462    0.798568715495231    0.314599458819361  0.0000
  O1     O1        0.204687077676428    0.174563037326459    0.184483518047611  0.0000
  O3     O3        0.819701446475266    0.205142853290692    0.734835318670009  0.0000
  O3     O3        0.751669160237768    0.854219518472590    0.808220645692033  0.0000
  O1     O1        0.113169326113910    0.831645933266281    0.190365262369033  0.0000
  O3     O3        0.274896115657437    0.477967728285229    0.621642388401890  0.0000
  O3     O3        0.676148159801799    0.570511285121125    0.338859815401656  0.0000
  O1     O1        0.248653104880321    0.138672844042402    0.705465966427546  0.0000
  O3     O3        0.797994351199937    0.263112580378554    0.402526791604546  0.0000
  O1     O1        0.721024159025602    0.923083964431856    0.316786079283736  0.0000
  O3     O3        0.230547277891691    0.777305335609532    0.709826723996815  0.0000
  O1     O1        0.974111056973349    0.977968773291445    0.542800060228569  0.0000
  O1     O1        0.971536379894862    0.105171358151947    0.280676848407195  0.0000
  O1     O1        0.053140821369939    0.960687762904150    0.821687700687844  0.0000
  O1     O1        0.915712930599791    0.069248449757235    0.004096413236839  0.0000
