data_c00130.vasp
_audit_creation_method             Generated by GULP
_audit_author_name                 Salvador R. G. Balestra
_symmetry_space_group_name_H-M     'P 1             '
_symmetry_Int_Tables_number        1

loop_
_symmetry_equiv_pos_site_id
_symmetry_equiv_pos_as_xyz
_cell_length_a                        9.1812
_cell_length_b                        7.7771
_cell_length_c                       10.4161
_cell_angle_alpha                   88.8988
_cell_angle_beta                   107.5894
_cell_angle_gamma                   91.7873

loop_
_atom_site_label
_atom_site_type_symbol
_atom_site_fract_x
_atom_site_fract_y
_atom_site_fract_z
_atom_site_charge
  Ge     Ge        0.313819999999964    0.296860000000038    0.309830000000034  0.0000
  Ge     Ge        0.253813639863715    0.706038150589932    0.299649425338221  0.0000
  Ge     Ge        0.675046193763898    0.375982891880049    0.397997902167963  0.0000
  Ge     Ge        0.614765595922586    0.786299698260631    0.383703694821343  0.0000
  Ge     Ge        0.860101828511796    0.072375867077195    0.325878466917003  0.0000
  Ge     Ge        0.091976228589195    0.006673115515020    0.622259056834231  0.0000
  Ge     Ge        0.060819113763467    0.014419911730338    0.131194051274865  0.0000
  Ge     Ge        0.868797724701354    0.049675869040584    0.814755099414661  0.0000
  Si     Si        0.675894035232509    0.366732496911560    0.701816617045294  0.0000
  Si     Si        0.635883960672102    0.756626560946115    0.692216821700091  0.0000
  Si     Si        0.319043622024252    0.305133639415794    0.615203668934583  0.0000
  Si     Si        0.279559606170944    0.693336108765903    0.610127615594613  0.0000
  O3     O3        0.257433303284354    0.279505620039000    0.454846389361201  0.0000
  O3     O3        0.734786320588573    0.366208095916510    0.572507955932344  0.0000
  O3     O3        0.684772234543261    0.794023240279287    0.558396949253216  0.0000
  O3     O3        0.209304062949695    0.698733904275126    0.449801503632339  0.0000
  O1     O1        0.275560941529957    0.503472366916456    0.249381427010676  0.0000
  O2     O2        0.679566727492190    0.563444546924881    0.750495429917261  0.0000
  O1     O1        0.504293900013328    0.262603259627000    0.342595368061762  0.0000
  O2     O2        0.502271545177735    0.288150378600960    0.659644740284607  0.0000
  O2     O2        0.452674238296976    0.772849123982847    0.650441300355148  0.0000
  O1     O1        0.423466525844380    0.821150995438307    0.326550052112796  0.0000
  O1     O1        0.214600153465488    0.151084155220455    0.195205365440829  0.0000
  O3     O3        0.782796675598303    0.246431903224172    0.814384760552223  0.0000
  O3     O3        0.726705421148845    0.890725699940972    0.802814193547697  0.0000
  O1     O1        0.110631114612912    0.807260778799734    0.182335349173182  0.0000
  O2     O2        0.279931506568063    0.494259566378403    0.658010550111248  0.0000
  O1     O1        0.650563044762486    0.582641527471090    0.339929436579814  0.0000
  O3     O3        0.234479935156640    0.164823357690530    0.682020932494712  0.0000
  O1     O1        0.813391139278869    0.279232329123101    0.349433546290742  0.0000
  O1     O1        0.705709204602737    0.937716352778209    0.314442554626533  0.0000
  O3     O3        0.179507048296246    0.809887810919498    0.673453633494368  0.0000
  O1     O1        0.019581294106557    0.008583514525924    0.450346156678270  0.0000
  O1     O1        0.905786586168073    0.070950912174127    0.177896314030959  0.0000
  O1     O1        0.942312300194722    0.036079563693590    0.682301295691844  0.0000
  O1     O1        0.014209395712203    0.025064121929290    0.958399590052762  0.0000
