data_c00112.vasp
_audit_creation_method             Generated by GULP
_audit_author_name                 Salvador R. G. Balestra
_symmetry_space_group_name_H-M     'P 1             '
_symmetry_Int_Tables_number        1

loop_
_symmetry_equiv_pos_site_id
_symmetry_equiv_pos_as_xyz
_cell_length_a                        8.8713
_cell_length_b                        7.8371
_cell_length_c                       11.0727
_cell_angle_alpha                   83.7879
_cell_angle_beta                   111.3075
_cell_angle_gamma                   91.6377

loop_
_atom_site_label
_atom_site_type_symbol
_atom_site_fract_x
_atom_site_fract_y
_atom_site_fract_z
_atom_site_charge
  Ge     Ge        0.313819999999964    0.296860000000038    0.309830000000034  0.0000
  Ge     Ge        0.751864851299825    0.594824553441184    0.729004815106099  0.0000
  Ge     Ge        0.709751895407206    0.293739232011049    0.395246717583366  0.0000
  Ge     Ge        0.355886257073974    0.598410092609315    0.643296284306642  0.0000
  Ge     Ge        0.899053092945980    0.981795430619733    0.364356369782975  0.0000
  Ge     Ge        0.166865707405570    0.910284056692284    0.675010055570569  0.0000
  Ge     Ge        0.113045194371128    0.983709944613980    0.177999438120399  0.0000
  Ge     Ge        0.952448833571683    0.908069605227425    0.860918704777668  0.0000
  Si     Si        0.736205771247305    0.214065273995866    0.682230307140589  0.0000
  Si     Si        0.329341249353854    0.677790966419401    0.356351335322009  0.0000
  Si     Si        0.355468049624044    0.217341544158966    0.600201278367893  0.0000
  Si     Si        0.710117106830626    0.674615869983592    0.438547538289884  0.0000
  O3     O3        0.275407937002503    0.201302508816771    0.445859070034776  0.0000
  O3     O3        0.779640370663944    0.196713161802862    0.555747222859648  0.0000
  O3     O3        0.790291660009224    0.690120754639644    0.592944313833451  0.0000
  O3     O3        0.286019878306526    0.695673934360276    0.482840810511550  0.0000
  O3     O3        0.252673259606078    0.509976536004787    0.285486786035813  0.0000
  O3     O3        0.812866673733880    0.381625982570330    0.753478151409833  0.0000
  O1     O1        0.506230691624741    0.271071434750265    0.313492794050876  0.0000
  O2     O2        0.543532764324463    0.259133845004508    0.621961016170831  0.0000
  O1     O1        0.559384822733887    0.620845435269526    0.725175053896271  0.0000
  O2     O2        0.522028193071157    0.632815375636030    0.416699829851948  0.0000
  O1     O1        0.182813573401447    0.188906239627526    0.187910146930091  0.0000
  O3     O3        0.785013695447381    0.044632399874684    0.779815526790318  0.0000
  O1     O1        0.882907097908094    0.702767096355055    0.850897976480583  0.0000
  O3     O3        0.280459636385605    0.846818147750195    0.258300096083837  0.0000
  O3     O3        0.293952198945974    0.387165619458188    0.639243474817239  0.0000
  O3     O3        0.771513573536116    0.505019969189269    0.399109794567082  0.0000
  O3     O3        0.327387407946401    0.051905084178311    0.683322116467563  0.0000
  O1     O1        0.814809115945351    0.183945569992991    0.325072528601898  0.0000
  O3     O3        0.738370102253320    0.840277928576531    0.355765895756251  0.0000
  O1     O1        0.250887459118396    0.708071520803604    0.713596564037837  0.0000
  O1     O1        0.032529440859043    0.946499243740829    0.519885846203458  0.0000
  O1     O1        0.971405714342159    0.938281807456313    0.248149799583663  0.0000
  O1     O1        0.095197433903417    0.953037526923663    0.791848692277924  0.0000
  O1     O1        0.031839438866048    0.946176631641596    0.019435236459223  0.0000
