data_c00138.vasp
_audit_creation_method             Generated by GULP
_audit_author_name                 Salvador R. G. Balestra
_symmetry_space_group_name_H-M     'P 1             '
_symmetry_Int_Tables_number        1

loop_
_symmetry_equiv_pos_site_id
_symmetry_equiv_pos_as_xyz
_cell_length_a                        9.2129
_cell_length_b                        7.7789
_cell_length_c                       10.3988
_cell_angle_alpha                   87.1583
_cell_angle_beta                   107.8314
_cell_angle_gamma                   91.8585

loop_
_atom_site_label
_atom_site_type_symbol
_atom_site_fract_x
_atom_site_fract_y
_atom_site_fract_z
_atom_site_charge
  Ge     Ge        0.313819999999964    0.296860000000038    0.309830000000034  0.0000
  Ge     Ge        0.677014924739440    0.359886093536735    0.396470727951070  0.0000
  Ge     Ge        0.619787392758753    0.769505152819749    0.390262883665968  0.0000
  Ge     Ge        0.286676077896423    0.663805804887090    0.622431282886673  0.0000
  Ge     Ge        0.860105341571624    0.056225751090012    0.326660326487530  0.0000
  Ge     Ge        0.089535201875977    0.979189557560805    0.627189276357209  0.0000
  Ge     Ge        0.071908675916905    0.006483864864806    0.140702314628215  0.0000
  Ge     Ge        0.875480372285228    0.020730646782299    0.823778231979448  0.0000
  Si     Si        0.677793443147509    0.335591841383439    0.699211304511329  0.0000
  Si     Si        0.644028876663692    0.729458261610757    0.701784138930296  0.0000
  Si     Si        0.266639592162738    0.696827779833305    0.310621585533680  0.0000
  Si     Si        0.322052222674997    0.271548229223859    0.614500772422847  0.0000
  O3     O3        0.253944926153205    0.263779531234569    0.452219685686571  0.0000
  O3     O3        0.740960963604177    0.341925700902714    0.572081365797947  0.0000
  O3     O3        0.688595919578783    0.773883315186933    0.565381889410352  0.0000
  O3     O3        0.222739400474384    0.671958035624115    0.447955500582230  0.0000
  O3     O3        0.287521107618424    0.512249414335507    0.257114581745325  0.0000
  O2     O2        0.676417714573031    0.528409359085771    0.749271436044712  0.0000
  O1     O1        0.502504890618204    0.257179817900912    0.338929090591013  0.0000
  O2     O2        0.504649860101091    0.259679071042297    0.647213711271162  0.0000
  O3     O3        0.466288355867511    0.758760423419272    0.676384075801913  0.0000
  O3     O3        0.426127391974338    0.803177279018259    0.341190986588718  0.0000
  O1     O1        0.206505082535114    0.166913984516292    0.188760354036045  0.0000
  O3     O3        0.778682413231252    0.211654356981117    0.816537687402997  0.0000
  O3     O3        0.747169160792524    0.849506219364719    0.815501869351707  0.0000
  O3     O3        0.137417574208871    0.803622654719258    0.201545578113484  0.0000
  O3     O3        0.285854845947852    0.449305111090344    0.670957471620108  0.0000
  O1     O1        0.661358183830270    0.572448973333710    0.344447806779447  0.0000
  O3     O3        0.245884595476206    0.119919002187556    0.680261617930754  0.0000
  O1     O1        0.811462916362389    0.263630475901540    0.344070206752700  0.0000
  O1     O1        0.701536683101013    0.929169335515919    0.318285813585714  0.0000
  O1     O1        0.165169414264886    0.778028338662583    0.678357429210449  0.0000
  O1     O1        0.016064225834087    0.986843904003616    0.454343065477321  0.0000
  O1     O1        0.910311741336182    0.048274633650087    0.181331233415168  0.0000
  O1     O1        0.946297320339999    0.024863392831466    0.688955832106708  0.0000
  O1     O1        0.023348822359131    0.002142847557910    0.967271840985120  0.0000
