data_c00114.vasp
_audit_creation_method             Generated by GULP
_audit_author_name                 Salvador R. G. Balestra
_symmetry_space_group_name_H-M     'P 1             '
_symmetry_Int_Tables_number        1

loop_
_symmetry_equiv_pos_site_id
_symmetry_equiv_pos_as_xyz
_cell_length_a                        9.1816
_cell_length_b                        7.6873
_cell_length_c                       10.2840
_cell_angle_alpha                   94.4016
_cell_angle_beta                   108.1985
_cell_angle_gamma                   88.0757

loop_
_atom_site_label
_atom_site_type_symbol
_atom_site_fract_x
_atom_site_fract_y
_atom_site_fract_z
_atom_site_charge
  Ge     Ge        0.313819999999964    0.296860000000038    0.309830000000034  0.0000
  Ge     Ge        0.366086196588952    0.697798617718957    0.302469207979599  0.0000
  Ge     Ge        0.347103805708520    0.336177392037554    0.644367936272326  0.0000
  Ge     Ge        0.663169744929012    0.199004180046660    0.387428229687761  0.0000
  Ge     Ge        0.729408764222617    0.609616610275981    0.396323499508075  0.0000
  Ge     Ge        0.372589420282845    0.728342109306842    0.618644047402046  0.0000
  Ge     Ge        0.918107013330652    0.910923214981755    0.337722722683520  0.0000
  Ge     Ge        0.115342141816463    0.974340563600533    0.142348843057410  0.0000
  Si     Si        0.695162106913294    0.264009266412208    0.712740289703226  0.0000
  Si     Si        0.736622594710306    0.658476326582399    0.702303973490497  0.0000
  Si     Si        0.140829948587115    0.023761212046104    0.636586520314797  0.0000
  Si     Si        0.934834683842893    0.980644681190790    0.826041106038310  0.0000
  O1     O1        0.330174881369147    0.368309850453544    0.476313453081014  0.0000
  O3     O3        0.714190537575104    0.216103616709468    0.564839362529444  0.0000
  O3     O3        0.797510113929397    0.623949136675871    0.574220605543538  0.0000
  O1     O1        0.302343791144457    0.740111647013973    0.443624929674570  0.0000
  O1     O1        0.324264320871076    0.486149172212199    0.235964895828862  0.0000
  O2     O2        0.730690054358636    0.469748376448029    0.762627359267780  0.0000
  O1     O1        0.471013424843344    0.162642235079941    0.319056210572222  0.0000
  O3     O3        0.523206104116768    0.233194257643266    0.712783745068883  0.0000
  O3     O3        0.569143927765997    0.745594640025458    0.656021564883069  0.0000
  O1     O1        0.560157376441440    0.725299062188248    0.344098868394983  0.0000
  O1     O1        0.155476871418543    0.179391706472112    0.225318679415942  0.0000
  O2     O2        0.812507929372990    0.139756049876945    0.818268368546791  0.0000
  O2     O2        0.850803586970721    0.794597493594264    0.812913795812398  0.0000
  O1     O1        0.270034781748421    0.837316322319015    0.181447984277830  0.0000
  O1     O1        0.338750837859944    0.551389613947086    0.697452299977592  0.0000
  O1     O1        0.702209565198532    0.396674785657541    0.336778290145136  0.0000
  O3     O3        0.202260014268537    0.221622110606164    0.670084859048895  0.0000
  O1     O1        0.757494285052430    0.036063965960307    0.326368124291929  0.0000
  O1     O1        0.872485736019034    0.700263006878473    0.351829761747374  0.0000
  O3     O3        0.287857804442806    0.900189334027656    0.688484301554971  0.0000
  O3     O3        0.069192553098275    0.995350503527679    0.472683169460338  0.0000
  O1     O1        0.967424847304784    0.901700523671260    0.190340597834064  0.0000
  O2     O2        0.008840100268549    0.989653458093680    0.703161532799635  0.0000
  O3     O3        0.065952607127825    0.999811728116678    0.968060938501457  0.0000
