data_c00129.vasp
_audit_creation_method             Generated by GULP
_audit_author_name                 Salvador R. G. Balestra
_symmetry_space_group_name_H-M     'P 1             '
_symmetry_Int_Tables_number        1

loop_
_symmetry_equiv_pos_site_id
_symmetry_equiv_pos_as_xyz
_cell_length_a                        9.2456
_cell_length_b                        7.7198
_cell_length_c                       10.2366
_cell_angle_alpha                   91.0222
_cell_angle_beta                   106.6206
_cell_angle_gamma                   88.3580

loop_
_atom_site_label
_atom_site_type_symbol
_atom_site_fract_x
_atom_site_fract_y
_atom_site_fract_z
_atom_site_charge
  Ge     Ge        0.313819999999964    0.296860000000038    0.309830000000034  0.0000
  Ge     Ge        0.363397884378625    0.699407544826220    0.319914689962485  0.0000
  Ge     Ge        0.326255655089633    0.312937079185059    0.638691166482794  0.0000
  Ge     Ge        0.373050804494437    0.713569826534429    0.641708146465498  0.0000
  Ge     Ge        0.897936494983792    0.931069562470717    0.343347087040696  0.0000
  Ge     Ge        0.122321673378665    0.000660611137547    0.640042046480595  0.0000
  Ge     Ge        0.110641732663134    0.983249566980856    0.151460206267024  0.0000
  Ge     Ge        0.911015322132427    0.943104819657821    0.836159689587751  0.0000
  Si     Si        0.671930486326309    0.230947524545971    0.708871643132683  0.0000
  Si     Si        0.722003110023584    0.631245643116247    0.718157160974632  0.0000
  Si     Si        0.664419756986785    0.223671422041889    0.400435757129149  0.0000
  Si     Si        0.716043611688588    0.625298319851348    0.414569912374151  0.0000
  O1     O1        0.280227017564898    0.323737937303168    0.464434103139760  0.0000
  O2     O2        0.708797781977076    0.196980906742831    0.564276577855636  0.0000
  O2     O2        0.772985792006286    0.635051299126415    0.579407708634609  0.0000
  O1     O1        0.310019333061737    0.720777491952186    0.466747288764380  0.0000
  O1     O1        0.320872907573789    0.499028483772820    0.246748295607784  0.0000
  O2     O2        0.702222360947791    0.433118171919838    0.755332358010535  0.0000
  O3     O3        0.488817154298612    0.190089371733803    0.334506349820254  0.0000
  O3     O3        0.498090998724014    0.198000575918635    0.691080449200376  0.0000
  O3     O3        0.565648637318307    0.738916159170036    0.691658373650575  0.0000
  O3     O3        0.556844124784488    0.725069347436122    0.358782151949787  0.0000
  O1     O1        0.168758137247697    0.188992122069601    0.202090865094377  0.0000
  O3     O3        0.774406912561964    0.107451481575836    0.822722857843294  0.0000
  O3     O3        0.840798260708626    0.735368090552197    0.834877371168437  0.0000
  O1     O1        0.267993448834387    0.852447441961083    0.208533998544142  0.0000
  O1     O1        0.337509127558610    0.517468493007663    0.702428179074615  0.0000
  O2     O2        0.698127029428505    0.422781539498398    0.369317535886077  0.0000
  O1     O1        0.189755630305645    0.205008217143084    0.683227092119948  0.0000
  O3     O3        0.761768366862790    0.092139148399094    0.336795630068627  0.0000
  O3     O3        0.836343344681979    0.723629468030005    0.359817650729882  0.0000
  O1     O1        0.277421978679786    0.867099129020253    0.706118898804764  0.0000
  O1     O1        0.061969511661407    0.976379025419900    0.464903469982048  0.0000
  O1     O1        0.952379208647159    0.928337374536723    0.195980149216938  0.0000
  O1     O1        0.970894249979383    0.957252023503378    0.693216519336532  0.0000
  O1     O1        0.058344328926301    0.973409744566467    0.975493616984416  0.0000
