data_c00134.vasp
_audit_creation_method             Generated by GULP
_audit_author_name                 Salvador R. G. Balestra
_symmetry_space_group_name_H-M     'P 1             '
_symmetry_Int_Tables_number        1

loop_
_symmetry_equiv_pos_site_id
_symmetry_equiv_pos_as_xyz
_cell_length_a                        9.1298
_cell_length_b                        7.7050
_cell_length_c                       10.3386
_cell_angle_alpha                   87.3051
_cell_angle_beta                   107.2129
_cell_angle_gamma                   91.9948

loop_
_atom_site_label
_atom_site_type_symbol
_atom_site_fract_x
_atom_site_fract_y
_atom_site_fract_z
_atom_site_charge
  Ge     Ge        0.313819999999964    0.296860000000038    0.309830000000034  0.0000
  Ge     Ge        0.326364907207730    0.265438269468296    0.626495209533044  0.0000
  Ge     Ge        0.676850152361540    0.373843889328368    0.395462635943274  0.0000
  Ge     Ge        0.628081671295038    0.781654070950595    0.397546389489599  0.0000
  Ge     Ge        0.271088883772664    0.671220741740063    0.616411109242419  0.0000
  Ge     Ge        0.083062983026521    0.978988516948011    0.683678159299459  0.0000
  Ge     Ge        0.065190437608749    0.009576591974215    0.181213593230077  0.0000
  Ge     Ge        0.860687319677504    0.030816277663961    0.868264607950157  0.0000
  Si     Si        0.681880934830269    0.351806651454900    0.703308466686521  0.0000
  Si     Si        0.627171184015362    0.747191812956919    0.703259785432821  0.0000
  Si     Si        0.273318861512116    0.699834350845030    0.307549989410707  0.0000
  Si     Si        0.873144560651408    0.069198350693204    0.385722646530501  0.0000
  O1     O1        0.258129414376727    0.255995554087946    0.453212004606996  0.0000
  O3     O3        0.736426637366605    0.379566336852223    0.570855058569421  0.0000
  O3     O3        0.687321373132318    0.786586087425605    0.573153131649578  0.0000
  O3     O3        0.219574880531487    0.667385266163983    0.441454534184981  0.0000
  O3     O3        0.298214283386695    0.514769165677879    0.255312923812011  0.0000
  O2     O2        0.654174749434375    0.542971440357749    0.751147169283063  0.0000
  O1     O1        0.505971452666036    0.260369043821097    0.343401420616986  0.0000
  O3     O3        0.522697432313654    0.242900532215861    0.668829486961916  0.0000
  O3     O3        0.447366885666059    0.780385428786418    0.668664162958287  0.0000
  O3     O3        0.432651132512036    0.812329144591460    0.345384328104696  0.0000
  O1     O1        0.200593415664150    0.171567915254369    0.185332647487419  0.0000
  O3     O3        0.804962924203911    0.241640907863229    0.816456063665649  0.0000
  O3     O3        0.719121107751305    0.872448755378789    0.819464692134195  0.0000
  O3     O3        0.148924915736087    0.808734337186976    0.194225177345326  0.0000
  O1     O1        0.283319315473479    0.461546623622992    0.677520131137360  0.0000
  O1     O1        0.665043154929275    0.586073138002439    0.340442117362980  0.0000
  O1     O1        0.246444162050833    0.104532756739552    0.703216441450180  0.0000
  O3     O3        0.812409887039736    0.264141901863830    0.345779571244920  0.0000
  O3     O3        0.726926985426790    0.938840643960730    0.333297474726614  0.0000
  O1     O1        0.132896855142330    0.771108148058897    0.663436040660528  0.0000
  O3     O3        0.933482272205732    0.050850348834876    0.548807998226351  0.0000
  O3     O3        0.007706827413762    0.026399739735396    0.326050454296724  0.0000
  O1     O1        0.021328448702890    0.984211232790557    0.824426255273731  0.0000
  O1     O1        0.911495569788848    0.026900760171101    0.042160922300538  0.0000
