data_c00100.vasp
_audit_creation_method             Generated by GULP
_audit_author_name                 Salvador R. G. Balestra
_symmetry_space_group_name_H-M     'P 1             '
_symmetry_Int_Tables_number        1

loop_
_symmetry_equiv_pos_site_id
_symmetry_equiv_pos_as_xyz
_cell_length_a                        9.2465
_cell_length_b                        7.6759
_cell_length_c                       10.0421
_cell_angle_alpha                   83.2855
_cell_angle_beta                   106.7589
_cell_angle_gamma                   91.6007

loop_
_atom_site_label
_atom_site_type_symbol
_atom_site_fract_x
_atom_site_fract_y
_atom_site_fract_z
_atom_site_charge
  Ge     Ge        0.313819999999964    0.296860000000038    0.309830000000034  0.0000
  Ge     Ge        0.635595915592282    0.689526469765754    0.740287679830160  0.0000
  Ge     Ge        0.319567030828014    0.214355775857010    0.643345539985409  0.0000
  Ge     Ge        0.655429885276194    0.369341527491751    0.395757627069888  0.0000
  Ge     Ge        0.630388190223095    0.768195465841568    0.415621613912540  0.0000
  Ge     Ge        0.269950492442687    0.628913824006660    0.643625414772793  0.0000
  Ge     Ge        0.060971529592648    0.026923779683753    0.189432672355066  0.0000
  Ge     Ge        0.865261971082735    0.982296082029202    0.873726941654257  0.0000
  Si     Si        0.655969293571817    0.300391539963729    0.717139409260329  0.0000
  Si     Si        0.276158333685790    0.705775715508128    0.327330156508852  0.0000
  Si     Si        0.869177108241783    0.058220526329053    0.409339926117573  0.0000
  Si     Si        0.086129432552833    0.921604914998249    0.704463705799007  0.0000
  O1     O1        0.284047809811254    0.213556575493481    0.466593720436567  0.0000
  O3     O3        0.616015171745728    0.386781936263790    0.554910796429904  0.0000
  O1     O1        0.691822084019849    0.760466800090019    0.594635464613983  0.0000
  O3     O3        0.218054837257499    0.667937238368982    0.463484596052258  0.0000
  O3     O3        0.296461173138782    0.523308564586848    0.273212185003236  0.0000
  O3     O3        0.678208002930058    0.469008602435072    0.801333113064868  0.0000
  O1     O1        0.496674815017077    0.267101587492413    0.306016720433746  0.0000
  O3     O3        0.510915800850254    0.186089705713640    0.729529664959843  0.0000
  O1     O1        0.445273357763567    0.714571295425494    0.711811328094679  0.0000
  O3     O3        0.437147072918643    0.804982914831814    0.366804518392345  0.0000
  O1     O1        0.187201280245272    0.194452674811912    0.184431160895059  0.0000
  O3     O3        0.797523216863922    0.172213869670978    0.762414286801617  0.0000
  O1     O1        0.738833179963190    0.815438669729542    0.864660996251017  0.0000
  O3     O3        0.154480956106921    0.828527932038240    0.211827854946112  0.0000
  O1     O1        0.265572214973669    0.407409630002592    0.686231958339181  0.0000
  O1     O1        0.673670060258190    0.588296951548133    0.346524649364298  0.0000
  O3     O3        0.232972476431062    0.039544410066377    0.710507014308873  0.0000
  O3     O3        0.816118675869044    0.259457071391683    0.400699757603849  0.0000
  O3     O3        0.721672785150119    0.944239695839050    0.350612321874213  0.0000
  O3     O3        0.132582462509499    0.723964673437007    0.697408984856304  0.0000
  O2     O2        0.945373698290175    0.990112220134547    0.572463706691052  0.0000
  O3     O3        0.992426296182222    0.050924752474980    0.329335666082265  0.0000
  O3     O3        0.030526612957752    0.925133030453722    0.840559071669852  0.0000
  O1     O1        0.914203303305090    0.038224359863539    0.041411169838117  0.0000
