data_c00110.vasp
_audit_creation_method             Generated by GULP
_audit_author_name                 Salvador R. G. Balestra
_symmetry_space_group_name_H-M     'P 1             '
_symmetry_Int_Tables_number        1

loop_
_symmetry_equiv_pos_site_id
_symmetry_equiv_pos_as_xyz
_cell_length_a                        9.3768
_cell_length_b                        7.7736
_cell_length_c                       10.2661
_cell_angle_alpha                   83.5326
_cell_angle_beta                   110.1525
_cell_angle_gamma                   90.1453

loop_
_atom_site_label
_atom_site_type_symbol
_atom_site_fract_x
_atom_site_fract_y
_atom_site_fract_z
_atom_site_charge
  Ge     Ge        0.313819999999964    0.296860000000038    0.309830000000034  0.0000
  Ge     Ge        0.680865684860160    0.663145165144137    0.726337856376666  0.0000
  Ge     Ge        0.349794299642111    0.224942500211676    0.633704738319893  0.0000
  Ge     Ge        0.629792770275630    0.749556051826092    0.392546245909029  0.0000
  Ge     Ge        0.864377210406708    0.041593869559959    0.391975102389479  0.0000
  Ge     Ge        0.131100477643108    0.920096428337238    0.699404179480287  0.0000
  Ge     Ge        0.060604571908198    0.035960525550900    0.179042762344203  0.0000
  Ge     Ge        0.901309768947571    0.960309691472938    0.860032803755001  0.0000
  Si     Si        0.687610800088115    0.281074530192395    0.701798483848335  0.0000
  Si     Si        0.277752166995365    0.708027709505332    0.327748209043539  0.0000
  Si     Si        0.649069093988728    0.359097007620741    0.388544091188164  0.0000
  Si     Si        0.321913963376640    0.629773795732830    0.642916214876803  0.0000
  O1     O1        0.312148011287187    0.184945424905976    0.464439929166766  0.0000
  O2     O2        0.612957341213279    0.362761093679725    0.535553573191062  0.0000
  O1     O1        0.690040625036493    0.757313032046507    0.570060216207325  0.0000
  O2     O2        0.283704750914652    0.727421099863716    0.485340953750975  0.0000
  O3     O3        0.255794371639318    0.510932833945034    0.296646725405324  0.0000
  O3     O3        0.752496852065542    0.449086082282641    0.775967610530155  0.0000
  O3     O3        0.491023790903566    0.292840573925245    0.289191998080908  0.0000
  O3     O3        0.542199855437643    0.202427582620696    0.733681856468651  0.0000
  O3     O3        0.497875838872634    0.654615400005154    0.727544279590775  0.0000
  O3     O3        0.434751526575253    0.778894943042200    0.316680349482315  0.0000
  O1     O1        0.194269447014791    0.188559476535369    0.182467877055263  0.0000
  O3     O3        0.811862255239840    0.131090775314786    0.729594868271228  0.0000
  O1     O1        0.788982816612598    0.784824667390608    0.849480266438615  0.0000
  O3     O3        0.138392508625644    0.825575335659728    0.221765970571107  0.0000
  O3     O3        0.282434431479700    0.430940384049481    0.636166802025841  0.0000
  O3     O3        0.679742501704384    0.556017309747394    0.346496898256432  0.0000
  O1     O1        0.255190072952146    0.082994022006882    0.709803800693946  0.0000
  O3     O3        0.793464691952920    0.242043709898249    0.407305551338234  0.0000
  O1     O1        0.716434220176127    0.910391415858129    0.323501179489043  0.0000
  O3     O3        0.221222388668592    0.721089872599669    0.713950400299318  0.0000
  O1     O1        0.972330349039504    0.941588240460611    0.552294679237822  0.0000
  O1     O1        0.971015001620119    0.089396305027234    0.289611970675334  0.0000
  O1     O1        0.068624962209739    0.911575825713246    0.838966820565561  0.0000
  O1     O1        0.929676602162850    0.039991747832600    0.015082765381544  0.0000
