data_c00132.vasp
_audit_creation_method             Generated by GULP
_audit_author_name                 Salvador R. G. Balestra
_symmetry_space_group_name_H-M     'P 1             '
_symmetry_Int_Tables_number        1

loop_
_symmetry_equiv_pos_site_id
_symmetry_equiv_pos_as_xyz
_cell_length_a                        9.2286
_cell_length_b                        7.7359
_cell_length_c                       10.3404
_cell_angle_alpha                   90.8699
_cell_angle_beta                   109.2201
_cell_angle_gamma                   87.8011

loop_
_atom_site_label
_atom_site_type_symbol
_atom_site_fract_x
_atom_site_fract_y
_atom_site_fract_z
_atom_site_charge
  Ge     Ge        0.313819999999964    0.296860000000038    0.309830000000034  0.0000
  Ge     Ge        0.341371588303197    0.312328786015012    0.628590639922611  0.0000
  Ge     Ge        0.679183311704948    0.215758958091294    0.395241696617302  0.0000
  Ge     Ge        0.724785088366675    0.622771804171193    0.394697762260786  0.0000
  Ge     Ge        0.399944009778225    0.714209003131733    0.635870415640473  0.0000
  Ge     Ge        0.929613217290940    0.928316627181008    0.382573407724181  0.0000
  Ge     Ge        0.158463950207469    0.002816900963630    0.694060877428790  0.0000
  Ge     Ge        0.940268561999591    0.945027082722509    0.874315259412620  0.0000
  Si     Si        0.702715201920576    0.238037814925470    0.705036201976456  0.0000
  Si     Si        0.754376479706449    0.634532103254460    0.709313015399625  0.0000
  Si     Si        0.367803339244112    0.695533286791546    0.318139417356507  0.0000
  Si     Si        0.126823764957345    0.981649688337124    0.186240237393251  0.0000
  O1     O1        0.260332798507194    0.309583054847428    0.452738715256816  0.0000
  O3     O3        0.756000728828075    0.204551463142342    0.573355022010479  0.0000
  O3     O3        0.798039189741037    0.625597641791230    0.572315615981181  0.0000
  O3     O3        0.327453259595895    0.707225993076268    0.458189891661463  0.0000
  O3     O3        0.331403703490774    0.503045464184552    0.255564238137826  0.0000
  O2     O2        0.733955674096741    0.438792245287188    0.753693727965093  0.0000
  O1     O1        0.487705755436625    0.186113910929221    0.349105254348988  0.0000
  O3     O3        0.522356121817510    0.210785358070580    0.667448269281815  0.0000
  O3     O3        0.594765390938052    0.741704003160973    0.683735726148929  0.0000
  O3     O3        0.545862744371598    0.729898469346934    0.347825313862578  0.0000
  O3     O3        0.187753865537285    0.172987192970478    0.184125517383760  0.0000
  O3     O3        0.798776861734418    0.106189228923951    0.821441827084901  0.0000
  O3     O3        0.882153014039618    0.737680589159304    0.823385145119071  0.0000
  O2     O2        0.265213769195724    0.836440241078658    0.209458400212912  0.0000
  O1     O1        0.358874361434040    0.519144523389353    0.690093742876774  0.0000
  O1     O1        0.707689828293856    0.416253787685645    0.338495380298124  0.0000
  O1     O1        0.217635470356164    0.209807932948227    0.690033805539967  0.0000
  O1     O1        0.774472852588746    0.070617479980075    0.325969936649793  0.0000
  O1     O1        0.852238964794324    0.728077156850207    0.339655454137967  0.0000
  O1     O1        0.319588085801904    0.876617678139561    0.703067728701340  0.0000
  O1     O1        0.005313956336693    0.944172361273470    0.557704045986034  0.0000
  O3     O3        0.072260596231510    0.970943225690433    0.318731777136591  0.0000
  O1     O1        0.101195219372000    0.985911019746553    0.835253045971402  0.0000
  O3     O3        0.988683353898331    0.943047737709435    0.051379876252757  0.0000
