data_c00113.vasp
_audit_creation_method             Generated by GULP
_audit_author_name                 Salvador R. G. Balestra
_symmetry_space_group_name_H-M     'P 1             '
_symmetry_Int_Tables_number        1

loop_
_symmetry_equiv_pos_site_id
_symmetry_equiv_pos_as_xyz
_cell_length_a                        9.2675
_cell_length_b                        7.7552
_cell_length_c                       10.0332
_cell_angle_alpha                   88.1136
_cell_angle_beta                   108.0693
_cell_angle_gamma                   92.7746

loop_
_atom_site_label
_atom_site_type_symbol
_atom_site_fract_x
_atom_site_fract_y
_atom_site_fract_z
_atom_site_charge
  Ge     Ge        0.313819999999964    0.296860000000038    0.309830000000034  0.0000
  Ge     Ge        0.260127389736575    0.708622020199758    0.309431511747863  0.0000
  Ge     Ge        0.335056047596735    0.271883776115397    0.637806832115056  0.0000
  Ge     Ge        0.673702291378255    0.375176958979388    0.393668523846952  0.0000
  Ge     Ge        0.618870657432958    0.776064577598887    0.389946689441478  0.0000
  Ge     Ge        0.291568013753453    0.677369500847003    0.639148004492288  0.0000
  Ge     Ge        0.867248332205616    0.069735083337369    0.342432455296475  0.0000
  Ge     Ge        0.093548152497577    0.979739239925857    0.653770228417492  0.0000
  Si     Si        0.681501967868192    0.350308883600050    0.718022823201055  0.0000
  Si     Si        0.641791009045591    0.739131678091516    0.718882247405756  0.0000
  Si     Si        0.065843148307293    0.012694495473078    0.144856605471765  0.0000
  Si     Si        0.872489733969763    0.036269126203202    0.832637396707012  0.0000
  O1     O1        0.328310067883167    0.211399457064484    0.473754235980678  0.0000
  O3     O3        0.666155712654518    0.311366214029175    0.558903374694005  0.0000
  O3     O3        0.615705893412763    0.802000931624541    0.559970934661678  0.0000
  O1     O1        0.271340893118872    0.765961068787193    0.475686653479670  0.0000
  O1     O1        0.224711858907996    0.489327117115620    0.290514649371447  0.0000
  O2     O2        0.726034417066076    0.554625750874899    0.747222545535009  0.0000
  O1     O1        0.490106490555413    0.330221380182978    0.288687215745374  0.0000
  O3     O3        0.521005506553702    0.307161326756377    0.742174818652525  0.0000
  O3     O3        0.479545834173792    0.713122651950249    0.743244475587740  0.0000
  O1     O1        0.434196074229846    0.754928764919903    0.285726030344681  0.0000
  O3     O3        0.210216421319457    0.144226615865861    0.193491170625263  0.0000
  O2     O2        0.806376712548802    0.227702297712806    0.821446509725413  0.0000
  O2     O2        0.743117660909553    0.884335821131598    0.823450298322217  0.0000
  O3     O3        0.116047032010657    0.819475935126429    0.192387001152187  0.0000
  O1     O1        0.245029547346629    0.463197217886590    0.626963080947323  0.0000
  O1     O1        0.713634090495425    0.592937221066527    0.386099793811910  0.0000
  O1     O1        0.244675172713426    0.123103924912243    0.715405300298106  0.0000
  O1     O1        0.815664233795347    0.277567772199919    0.355268570842062  0.0000
  O1     O1        0.704061934633745    0.949404429715130    0.332342898191756  0.0000
  O1     O1        0.165682699990751    0.780095603989294    0.700331871406134  0.0000
  O1     O1        0.022301888928250    0.009228414871912    0.474500327671736  0.0000
  O3     O3        0.925122541860060    0.063043847486883    0.194453463257727  0.0000
  O3     O3        0.936183735940117    0.011529137500316    0.703995773992706  0.0000
  O2     O2        0.009303422598836    0.019260213490942    0.975053092047084  0.0000
