data_c00102.vasp
_audit_creation_method             Generated by GULP
_audit_author_name                 Salvador R. G. Balestra
_symmetry_space_group_name_H-M     'P 1             '
_symmetry_Int_Tables_number        1

loop_
_symmetry_equiv_pos_site_id
_symmetry_equiv_pos_as_xyz
_cell_length_a                        9.4748
_cell_length_b                        7.7164
_cell_length_c                       10.2423
_cell_angle_alpha                   82.7475
_cell_angle_beta                   111.5014
_cell_angle_gamma                   90.0540

loop_
_atom_site_label
_atom_site_type_symbol
_atom_site_fract_x
_atom_site_fract_y
_atom_site_fract_z
_atom_site_charge
  Ge     Ge        0.313819999999964    0.296860000000038    0.309830000000034  0.0000
  Ge     Ge        0.696804141792635    0.664483012182318    0.730312117510811  0.0000
  Ge     Ge        0.368067703764212    0.220800227262411    0.647870532590350  0.0000
  Ge     Ge        0.655636038256708    0.356345946874200    0.384450234272507  0.0000
  Ge     Ge        0.638860160484386    0.754927520507980    0.396751592186484  0.0000
  Ge     Ge        0.878092000331645    0.039382155148545    0.389643502422431  0.0000
  Ge     Ge        0.145859133227259    0.917756082905776    0.705873108553429  0.0000
  Ge     Ge        0.921267792025255    0.956297448194200    0.867076110732973  0.0000
  Si     Si        0.700629972949358    0.277028934233592    0.709153775166518  0.0000
  Si     Si        0.286192339161508    0.708670849027431    0.331461503680752  0.0000
  Si     Si        0.341150173919861    0.630893422864517    0.652165244929226  0.0000
  Si     Si        0.066699482763624    0.035968214854890    0.180069798959491  0.0000
  O1     O1        0.305588066685118    0.208924528888838    0.469843459763194  0.0000
  O3     O3        0.630514912848281    0.370835649627935    0.545111797660450  0.0000
  O1     O1        0.727549113929400    0.739941781672491    0.578492202496010  0.0000
  O2     O2        0.263764678429700    0.683668055765614    0.481534419149120  0.0000
  O3     O3        0.277417876481187    0.522839090884134    0.276488663301867  0.0000
  O3     O3        0.747555597550662    0.443248826128315    0.792868232836176  0.0000
  O1     O1        0.486923584885723    0.267457881479657    0.294915584101329  0.0000
  O3     O3        0.561894718191581    0.172715002766399    0.732432987566080  0.0000
  O3     O3        0.508798021146311    0.703192602290546    0.704755711642589  0.0000
  O3     O3        0.445499392219040    0.794669842572562    0.350753058422268  0.0000
  O3     O3        0.183114430574567    0.188516719601997    0.185190408713598  0.0000
  O3     O3        0.833512627029176    0.135300014932943    0.736586152473283  0.0000
  O1     O1        0.809559527589189    0.781527598948796    0.857342805713218  0.0000
  O2     O2        0.152267997351456    0.842896269867465    0.223864865826350  0.0000
  O3     O3        0.341150725693758    0.425449152976789    0.688917698757745  0.0000
  O1     O1        0.667518713762770    0.572275165551191    0.328334632678433  0.0000
  O1     O1        0.265640866077934    0.085420548750724    0.718147529774413  0.0000
  O1     O1        0.815410242901291    0.246626616568109    0.398230404281744  0.0000
  O1     O1        0.717678822176038    0.924334603397993    0.326717858421534  0.0000
  O3     O3        0.243188393507026    0.721665587738499    0.723785372377274  0.0000
  O1     O1        0.988947885248044    0.938938304862763    0.553086015259800  0.0000
  O3     O3        0.978836493517349    0.071186137484664    0.281153313470557  0.0000
  O1     O1        0.085114246977746    0.905173478239174    0.845302986038834  0.0000
  O3     O3        0.947860714909326    0.039199130261903    0.022749644297240  0.0000
