data_c00126.vasp
_audit_creation_method             Generated by GULP
_audit_author_name                 Salvador R. G. Balestra
_symmetry_space_group_name_H-M     'P 1             '
_symmetry_Int_Tables_number        1

loop_
_symmetry_equiv_pos_site_id
_symmetry_equiv_pos_as_xyz
_cell_length_a                        9.1347
_cell_length_b                        7.7855
_cell_length_c                       10.2950
_cell_angle_alpha                   88.9439
_cell_angle_beta                   106.5815
_cell_angle_gamma                   91.9814

loop_
_atom_site_label
_atom_site_type_symbol
_atom_site_fract_x
_atom_site_fract_y
_atom_site_fract_z
_atom_site_charge
  Ge     Ge        0.313819999999964    0.296860000000038    0.309830000000034  0.0000
  Ge     Ge        0.278575130268797    0.702339915125480    0.299943480328825  0.0000
  Ge     Ge        0.326319254949778    0.283964602770188    0.626881734703166  0.0000
  Ge     Ge        0.681253591311872    0.366389369727375    0.405291162641470  0.0000
  Ge     Ge        0.276822225825576    0.685771855573757    0.622314045486415  0.0000
  Ge     Ge        0.091628611064141    0.995720004405290    0.689648737339116  0.0000
  Ge     Ge        0.061946949742437    0.008649157262789    0.179847238904858  0.0000
  Ge     Ge        0.863974542559277    0.047850382779895    0.870371433256301  0.0000
  Si     Si        0.685610110010166    0.360561226818002    0.708893814805722  0.0000
  Si     Si        0.631986803769389    0.750615406348506    0.702165244990762  0.0000
  Si     Si        0.634526666175350    0.766025469790197    0.395819560725400  0.0000
  Si     Si        0.874645186844667    0.057887061344004    0.393389389386485  0.0000
  O1     O1        0.254501303314169    0.274240932917268    0.453877642898674  0.0000
  O3     O3        0.750883496479992    0.369542540977323    0.580302709614748  0.0000
  O2     O2        0.672087720699915    0.767068558217695    0.559368049431407  0.0000
  O1     O1        0.229861381663090    0.689644993278901    0.448952016439640  0.0000
  O1     O1        0.287258216948758    0.501154806372533    0.242997755448413  0.0000
  O2     O2        0.665096793315007    0.553983829988916    0.756759618573170  0.0000
  O1     O1        0.506513537408483    0.264425408217864    0.352423405999041  0.0000
  O3     O3        0.521563849731493    0.263574304062761    0.664810281850244  0.0000
  O3     O3        0.456229852172299    0.786495248083740    0.681881499778109  0.0000
  O3     O3        0.458257495364819    0.805284834924674    0.331020495859440  0.0000
  O1     O1        0.205875906472927    0.160262271149868    0.190331375209999  0.0000
  O3     O3        0.797685006080062    0.252400545960313    0.827107599093175  0.0000
  O3     O3        0.732835280946944    0.884279749337956    0.806983483227386  0.0000
  O1     O1        0.145428694406681    0.814283443973216    0.182364961040492  0.0000
  O1     O1        0.282766144824584    0.478394366496739    0.679859116091399  0.0000
  O3     O3        0.670107920540348    0.578237811719517    0.349717564701643  0.0000
  O1     O1        0.252774321538854    0.121756514059625    0.703886579303296  0.0000
  O3     O3        0.804667356169690    0.244294370759828    0.347466856863138  0.0000
  O2     O2        0.740159452940514    0.909585036597323    0.349467954388770  0.0000
  O1     O1        0.142332199169976    0.788738945632037    0.674705162765959  0.0000
  O3     O3        0.940760656995387    0.058390701859397    0.555626961599706  0.0000
  O3     O3        0.007004637125442    0.019669678908888    0.328024681628988  0.0000
  O1     O1        0.030450865836629    0.015374859551395    0.831008893100011  0.0000
  O1     O1        0.907798490320250    0.035915899152273    0.043892410671858  0.0000
