data_c00119.vasp
_audit_creation_method             Generated by GULP
_audit_author_name                 Salvador R. G. Balestra
_symmetry_space_group_name_H-M     'P 1             '
_symmetry_Int_Tables_number        1

loop_
_symmetry_equiv_pos_site_id
_symmetry_equiv_pos_as_xyz
_cell_length_a                        9.1609
_cell_length_b                        7.7581
_cell_length_c                       10.4395
_cell_angle_alpha                   92.0976
_cell_angle_beta                   108.7162
_cell_angle_gamma                   87.5122

loop_
_atom_site_label
_atom_site_type_symbol
_atom_site_fract_x
_atom_site_fract_y
_atom_site_fract_z
_atom_site_charge
  Ge     Ge        0.313819999999964    0.296860000000038    0.309830000000034  0.0000
  Ge     Ge        0.379675130790881    0.702666326435907    0.320544476776325  0.0000
  Ge     Ge        0.349782892218682    0.313896855810421    0.630703900893136  0.0000
  Ge     Ge        0.678671364280331    0.211434747107074    0.391931675526920  0.0000
  Ge     Ge        0.743640948798201    0.616697998731044    0.405150778704691  0.0000
  Ge     Ge        0.925463113804247    0.922705035213469    0.340344197379574  0.0000
  Ge     Ge        0.157111459235546    0.999576918681062    0.644316880245062  0.0000
  Ge     Ge        0.121882690366155    0.983809414829316    0.143014509845807  0.0000
  Si     Si        0.714389859654129    0.246113657607837    0.705341209326078  0.0000
  Si     Si        0.750534901877035    0.634434709568826    0.707201190102358  0.0000
  Si     Si        0.390484418556484    0.705609924889524    0.625601613732468  0.0000
  Si     Si        0.941673953758368    0.947913347768464    0.828780989187834  0.0000
  O1     O1        0.271417968188157    0.307974526349717    0.458332832602799  0.0000
  O3     O3        0.755055985138349    0.216331230732234    0.567689580881772  0.0000
  O3     O3        0.811522512138919    0.617807380330114    0.581028736328960  0.0000
  O3     O3        0.319610588961367    0.717324379123556    0.463300821026555  0.0000
  O1     O1        0.338800534950921    0.496109928927693    0.257053047957429  0.0000
  O2     O2        0.755472307180908    0.442223658990028    0.766004165212557  0.0000
  O1     O1        0.485967412975316    0.179591665698120    0.342567314474962  0.0000
  O3     O3        0.534881985384495    0.220767558651046    0.677286477173906  0.0000
  O2     O2        0.575089985299344    0.710614511300216    0.656535715711298  0.0000
  O1     O1        0.571991640566918    0.733479923283422    0.355178247013800  0.0000
  O1     O1        0.169421699078057    0.193217874087436    0.189912543099621  0.0000
  O2     O2        0.818544451865700    0.109509695130074    0.813370363756971  0.0000
  O2     O2        0.854302549595635    0.767153737583433    0.819167609367974  0.0000
  O1     O1        0.282038913571416    0.852928446364032    0.208200309202291  0.0000
  O3     O3        0.353966887023407    0.527608180776542    0.681742294194601  0.0000
  O1     O1        0.715557774100418    0.410523455565702    0.342290808018585  0.0000
  O1     O1        0.236036213168072    0.197674930719550    0.695010034450698  0.0000
  O1     O1        0.763899071979281    0.051536536699009    0.323651579050742  0.0000
  O1     O1        0.882212663945471    0.713719980385999    0.359578937320744  0.0000
  O3     O3        0.317129495136684    0.857519133936056    0.693042964411310  0.0000
  O1     O1        0.077544204580995    0.996499359220025    0.471507041104869  0.0000
  O1     O1        0.972908912356464    0.924945828755433    0.194358718379733  0.0000
  O3     O3        0.015469067230950    0.948416735472670    0.708479020815263  0.0000
  O3     O3        0.074271926837268    0.963966717843202    0.968609870287574  0.0000
