data_c00109.vasp
_audit_creation_method             Generated by GULP
_audit_author_name                 Salvador R. G. Balestra
_symmetry_space_group_name_H-M     'P 1             '
_symmetry_Int_Tables_number        1

loop_
_symmetry_equiv_pos_site_id
_symmetry_equiv_pos_as_xyz
_cell_length_a                        9.2128
_cell_length_b                        7.8980
_cell_length_c                       10.3607
_cell_angle_alpha                   85.7025
_cell_angle_beta                   108.1479
_cell_angle_gamma                   90.7284

loop_
_atom_site_label
_atom_site_type_symbol
_atom_site_fract_x
_atom_site_fract_y
_atom_site_fract_z
_atom_site_charge
  Ge     Ge        0.313819999999964    0.296860000000038    0.309830000000034  0.0000
  Ge     Ge        0.693614098682813    0.654420134418200    0.724410894521884  0.0000
  Ge     Ge        0.343526251126327    0.240010004500695    0.631728485737737  0.0000
  Ge     Ge        0.692803944575596    0.297869721699851    0.403088771300928  0.0000
  Ge     Ge        0.883525971471238    0.987772946488982    0.342008636521954  0.0000
  Ge     Ge        0.123034738273373    0.931686943883450    0.647745419645206  0.0000
  Ge     Ge        0.111449850688300    0.989418958802031    0.164517320667936  0.0000
  Ge     Ge        0.917577631949076    0.943277633747850    0.853462894342232  0.0000
  Si     Si        0.704777155166986    0.252073128023369    0.714140772847330  0.0000
  Si     Si        0.322109952238016    0.677845085029904    0.343765242214820  0.0000
  Si     Si        0.687673315103330    0.685890933143175    0.421724883695140  0.0000
  Si     Si        0.335403847773340    0.633203011382292    0.646439351677821  0.0000
  O1     O1        0.272131188251296    0.242067471466002    0.457697611085584  0.0000
  O3     O3        0.753643807318786    0.250334010854743    0.577779158587080  0.0000
  O3     O3        0.754956788724308    0.702628754727912    0.583141231191731  0.0000
  O2     O2        0.272314449689954    0.652270982077436    0.480482849295165  0.0000
  O3     O3        0.271788128420998    0.511809874128400    0.261924995162333  0.0000
  O3     O3        0.713566672897390    0.438922549424721    0.766151939020817  0.0000
  O1     O1        0.503211281450803    0.256532323879687    0.330672221268190  0.0000
  O3     O3        0.533311535221670    0.182436298883700    0.675215337448551  0.0000
  O3     O3        0.504827858893848    0.708178703415973    0.696824046120685  0.0000
  O2     O2        0.505732465649100    0.678284094667188    0.392561599267611  0.0000
  O1     O1        0.192996188219529    0.185622709767045    0.185529114552678  0.0000
  O3     O3        0.813483340383235    0.130151138688350    0.834092651675238  0.0000
  O1     O1        0.802082044532523    0.769386268944156    0.851600251576941  0.0000
  O3     O3        0.254911951323830    0.849597476511969    0.260542698828228  0.0000
  O3     O3        0.332132275409545    0.436256390799046    0.693334851085973  0.0000
  O3     O3        0.735712176684039    0.510255056607025    0.377900288830567  0.0000
  O1     O1        0.245345294251208    0.097295940753565    0.701729234555572  0.0000
  O1     O1        0.803438188285808    0.184015711768620    0.335370980775823  0.0000
  O3     O3        0.741300836313070    0.841322526408064    0.341839950074278  0.0000
  O3     O3        0.225390081754741    0.741917879064745    0.700742355775073  0.0000
  O1     O1        0.048193864603843    0.953156563494304    0.473557969189546  0.0000
  O1     O1        0.942608347333143    0.974159879193556    0.200913621997683  0.0000
  O1     O1        0.977715574383236    0.934021136067148    0.713676594127200  0.0000
  O1     O1        0.069016219036182    0.942346527262263    0.997796459670568  0.0000
