data_c00118.vasp
_audit_creation_method             Generated by GULP
_audit_author_name                 Salvador R. G. Balestra
_symmetry_space_group_name_H-M     'P 1             '
_symmetry_Int_Tables_number        1

loop_
_symmetry_equiv_pos_site_id
_symmetry_equiv_pos_as_xyz
_cell_length_a                        9.0640
_cell_length_b                        7.7898
_cell_length_c                       10.1777
_cell_angle_alpha                   91.5501
_cell_angle_beta                   105.7075
_cell_angle_gamma                   87.2980

loop_
_atom_site_label
_atom_site_type_symbol
_atom_site_fract_x
_atom_site_fract_y
_atom_site_fract_z
_atom_site_charge
  Ge     Ge        0.313819999999964    0.296860000000038    0.309830000000034  0.0000
  Ge     Ge        0.364710089896988    0.703083291591519    0.314595774959931  0.0000
  Ge     Ge        0.312870738756750    0.314711299678044    0.627661474357622  0.0000
  Ge     Ge        0.681126205562590    0.225666408789188    0.405554489646459  0.0000
  Ge     Ge        0.726396702096442    0.625710198667208    0.408861089021829  0.0000
  Ge     Ge        0.362671361345590    0.723259723611614    0.633199038492674  0.0000
  Ge     Ge        0.112935439338596    0.986686611147449    0.181424631134357  0.0000
  Ge     Ge        0.902378449886196    0.957344203551950    0.871635094010008  0.0000
  Si     Si        0.669872659690833    0.254007793333579    0.717079207632721  0.0000
  Si     Si        0.712139897960705    0.645641187291026    0.720093254969258  0.0000
  Si     Si        0.924922185399032    0.932789167349295    0.400075821284784  0.0000
  Si     Si        0.130505993544036    0.016347434974737    0.694292884600013  0.0000
  O1     O1        0.303230759270549    0.235089833975934    0.468038588778324  0.0000
  O3     O3        0.667594793705022    0.181875806659969    0.567389898551199  0.0000
  O3     O3        0.702970437336933    0.691431269779541    0.565662848498395  0.0000
  O1     O1        0.369259274214391    0.783288681184527    0.475094840653484  0.0000
  O1     O1        0.273627829358037    0.511847137462489    0.292634804846472  0.0000
  O2     O2        0.748992269253038    0.440004856395031    0.739163901204943  0.0000
  O1     O1        0.499328435271750    0.250240160104535    0.301278009807451  0.0000
  O3     O3        0.498636203662939    0.280055789123827    0.730467358244006  0.0000
  O3     O3        0.546166242639766    0.694581819750884    0.741486283958867  0.0000
  O1     O1        0.548234075262280    0.665724974534200    0.299482315184350  0.0000
  O1     O1        0.182267112886540    0.188171038922470    0.187328170121608  0.0000
  O3     O3        0.762350287703463    0.118133228570294    0.826513789476191  0.0000
  O3     O3        0.841486181134981    0.752963731876815    0.822301597054935  0.0000
  O1     O1        0.265849190004716    0.843488409103633    0.192929691629890  0.0000
  O1     O1        0.271742520549638    0.532114350543032    0.623423429084602  0.0000
  O1     O1        0.775897101481638    0.411648659155128    0.405392707580011  0.0000
  O3     O3        0.183196827696166    0.209425784748576    0.690367176006693  0.0000
  O3     O3        0.776357009254067    0.058538561057273    0.344527264753345  0.0000
  O3     O3        0.870682879995254    0.738415746983741    0.375470614792389  0.0000
  O3     O3        0.274174322700186    0.884901958474332    0.706224751510670  0.0000
  O2     O2        0.989368395879246    0.973970292889453    0.562526921616014  0.0000
  O3     O3        0.057980873234363    0.955272115910406    0.330358552725615  0.0000
  O3     O3        0.065883602335994    0.999895767660434    0.824606602550367  0.0000
  O1     O1        0.959008673010457    0.955631006073628    0.046427109941301  0.0000
