data_c00103.vasp
_audit_creation_method             Generated by GULP
_audit_author_name                 Salvador R. G. Balestra
_symmetry_space_group_name_H-M     'P 1             '
_symmetry_Int_Tables_number        1

loop_
_symmetry_equiv_pos_site_id
_symmetry_equiv_pos_as_xyz
_cell_length_a                        9.4421
_cell_length_b                        7.7125
_cell_length_c                       10.2075
_cell_angle_alpha                   83.3005
_cell_angle_beta                   109.8212
_cell_angle_gamma                   89.9565

loop_
_atom_site_label
_atom_site_type_symbol
_atom_site_fract_x
_atom_site_fract_y
_atom_site_fract_z
_atom_site_charge
  Ge     Ge        0.313819999999964    0.296860000000038    0.309830000000034  0.0000
  Ge     Ge        0.677537573367979    0.661533987627004    0.730267515556329  0.0000
  Ge     Ge        0.332445517438981    0.234570859411494    0.638478536460623  0.0000
  Ge     Ge        0.650627789630128    0.360669321587201    0.393453281513245  0.0000
  Ge     Ge        0.630518491077121    0.761691204866706    0.398815596226772  0.0000
  Ge     Ge        0.873185793858862    0.045750887930865    0.397807619928250  0.0000
  Ge     Ge        0.061087881421532    0.037585983724407    0.174226398912139  0.0000
  Ge     Ge        0.895143381044272    0.959574099544301    0.854977448354884  0.0000
  Si     Si        0.668803441722256    0.278170783019488    0.708296408174203  0.0000
  Si     Si        0.282332272517425    0.713349520221134    0.327615927117042  0.0000
  Si     Si        0.317474359419245    0.643666278318253    0.644429831684883  0.0000
  Si     Si        0.122953736550351    0.929402981763468    0.698912736373368  0.0000
  O1     O1        0.289607644274671    0.211147301858240    0.464944159695337  0.0000
  O3     O3        0.607752901354475    0.377243826332988    0.547530628368558  0.0000
  O1     O1        0.708373607491489    0.743721506426593    0.579561716857456  0.0000
  O2     O2        0.255808834468851    0.701920379265133    0.476871283068062  0.0000
  O3     O3        0.288591243604785    0.522995733744432    0.283572260969416  0.0000
  O3     O3        0.727281567937152    0.441146923391513    0.793955732568839  0.0000
  O1     O1        0.490524587295749    0.262841358096742    0.301478881761360  0.0000
  O3     O3        0.522886970401091    0.190474630588761    0.732125593688178  0.0000
  O3     O3        0.489797764474182    0.690733687754966    0.710134022151732  0.0000
  O3     O3        0.438229952994947    0.808519415547779    0.345271836512975  0.0000
  O1     O1        0.189030895858247    0.196999214525674    0.180796650244953  0.0000
  O3     O3        0.791880363283509    0.127970232802879    0.726879989588211  0.0000
  O1     O1        0.791211715225889    0.779032215143281    0.855169421376485  0.0000
  O3     O3        0.145919976105928    0.829064433216713    0.214940268531466  0.0000
  O3     O3        0.291336493398626    0.440916700168902    0.670813938263307  0.0000
  O1     O1        0.663782102439362    0.574833344674476    0.335273559371598  0.0000
  O3     O3        0.221717835630823    0.098491395787425    0.702849919706606  0.0000
  O1     O1        0.813229333224721    0.250563655211320    0.416063456858244  0.0000
  O1     O1        0.716033003095089    0.928196407550908    0.333059859483253  0.0000
  O2     O2        0.223956540461667    0.754467246990760    0.714267005821081  0.0000
  O3     O3        0.979284121138449    0.937540855246745    0.558361051223613  0.0000
  O1     O1        0.970572912652254    0.082524794714243    0.286464745807808  0.0000
  O3     O3        0.062374848537509    0.916618922120855    0.828409783364698  0.0000
  O1     O1        0.931327007762352    0.043374798729377    0.010080277597906  0.0000
