data_c00139.vasp
_audit_creation_method             Generated by GULP
_audit_author_name                 Salvador R. G. Balestra
_symmetry_space_group_name_H-M     'P 1             '
_symmetry_Int_Tables_number        1

loop_
_symmetry_equiv_pos_site_id
_symmetry_equiv_pos_as_xyz
_cell_length_a                        9.2486
_cell_length_b                        7.6916
_cell_length_c                       10.3991
_cell_angle_alpha                   91.9796
_cell_angle_beta                   108.6156
_cell_angle_gamma                   87.7951

loop_
_atom_site_label
_atom_site_type_symbol
_atom_site_fract_x
_atom_site_fract_y
_atom_site_fract_z
_atom_site_charge
  Ge     Ge        0.331050000000005    0.296920000000000    0.607380000000035  0.0000
  Ge     Ge        0.668371670959808    0.189642957839174    0.380889416535048  0.0000
  Ge     Ge        0.718674671372070    0.594641889219717    0.376683572102498  0.0000
  Ge     Ge        0.389691519711177    0.706434045473285    0.614278289204875  0.0000
  Ge     Ge        0.921378108361732    0.902795171214834    0.371670429409337  0.0000
  Ge     Ge        0.146470668807662    0.990966873095981    0.676264554411258  0.0000
  Ge     Ge        0.124475658059228    0.962449766707482    0.172117869972657  0.0000
  Ge     Ge        0.927874286648222    0.935829620194695    0.854594074827786  0.0000
  Si     Si        0.315671813808355    0.276339328397088    0.300046437403778  0.0000
  Si     Si        0.688763717214445    0.223640837065684    0.689357335107169  0.0000
  Si     Si        0.741981585828356    0.620656840656724    0.689171630393853  0.0000
  Si     Si        0.366861445669949    0.676657718588603    0.302807381200135  0.0000
  O3     O3        0.260577072492473    0.286473090104071    0.431289425314116  0.0000
  O3     O3        0.740132987827507    0.185012991446239    0.557076329158012  0.0000
  O3     O3        0.784938120619543    0.600638919599374    0.552791841411498  0.0000
  O3     O3        0.321569033504854    0.717326725220057    0.438384568310361  0.0000
  O2     O2        0.341454240921014    0.471240685767482    0.260211427772002  0.0000
  O2     O2        0.718769448295338    0.427176052736205    0.736206777768693  0.0000
  O3     O3        0.474738982703186    0.165970876602675    0.336485764679598  0.0000
  O3     O3        0.510096123241279    0.193655100188209    0.657884286333628  0.0000
  O3     O3        0.584203906766501    0.730423877310929    0.664476451488181  0.0000
  O3     O3        0.543966636714547    0.708223297252755    0.328651349686008  0.0000
  O3     O3        0.198227850011780    0.169027896481252    0.179721575302169  0.0000
  O3     O3        0.786980882592580    0.096578207267796    0.804631205073248  0.0000
  O3     O3        0.870782822770165    0.726766740766294    0.799832579294292  0.0000
  O3     O3        0.262671915735544    0.797390917543805    0.185231760981984  0.0000
  O1     O1        0.343701314628399    0.509329495374327    0.660745785518028  0.0000
  O1     O1        0.704607302791080    0.384906983526888    0.322050380704523  0.0000
  O1     O1        0.200857842531543    0.199554300615310    0.663112220545535  0.0000
  O1     O1        0.759805576498167    0.035313633196100    0.314523669816131  0.0000
  O1     O1        0.850780495938354    0.697750790921301    0.326647515388102  0.0000
  O1     O1        0.308081031557977    0.865833944959938    0.686611583130013  0.0000
  O1     O1        0.992344864099654    0.924431883809949    0.545693886681086  0.0000
  O1     O1        0.062445442719007    0.951368960836304    0.310578487996005  0.0000
  O1     O1        0.090251170336110    0.980860647066306    0.818211648204547  0.0000
  O1     O1        0.975975889370786    0.934582348830643    0.028700665277227  0.0000
