data_c00121.vasp
_audit_creation_method             Generated by GULP
_audit_author_name                 Salvador R. G. Balestra
_symmetry_space_group_name_H-M     'P 1             '
_symmetry_Int_Tables_number        1

loop_
_symmetry_equiv_pos_site_id
_symmetry_equiv_pos_as_xyz
_cell_length_a                        9.0248
_cell_length_b                        7.7787
_cell_length_c                       10.1708
_cell_angle_alpha                   91.2139
_cell_angle_beta                   104.8660
_cell_angle_gamma                   87.7750

loop_
_atom_site_label
_atom_site_type_symbol
_atom_site_fract_x
_atom_site_fract_y
_atom_site_fract_z
_atom_site_charge
  Ge     Ge        0.313819999999964    0.296860000000038    0.309830000000034  0.0000
  Ge     Ge        0.365096673215726    0.706256567779717    0.317924300047809  0.0000
  Ge     Ge        0.312719865241493    0.307558743731486    0.626800749866493  0.0000
  Ge     Ge        0.676861764670625    0.218834470426472    0.403387975679168  0.0000
  Ge     Ge        0.725838836796240    0.628684025311736    0.408906069376628  0.0000
  Ge     Ge        0.936701570640734    0.931876437532043    0.398026006703366  0.0000
  Ge     Ge        0.122487801767522    0.988930235795171    0.172632660114796  0.0000
  Ge     Ge        0.900727270930690    0.954036729155940    0.873153720351854  0.0000
  Si     Si        0.678549812825553    0.251333727471016    0.713096399817842  0.0000
  Si     Si        0.711383393813467    0.642973841769669    0.715569695098470  0.0000
  Si     Si        0.353345669115959    0.703849439378831    0.627914310557548  0.0000
  Si     Si        0.134864063116898    0.996755354272624    0.697662907981730  0.0000
  O1     O1        0.245521600300494    0.302016597824188    0.453929082640373  0.0000
  O3     O3        0.739671162127651    0.218055986162021    0.580271702176700  0.0000
  O3     O3        0.779318997056192    0.638472430220943    0.586064252697942  0.0000
  O3     O3        0.298525015345137    0.715761274232245    0.465321503499478  0.0000
  O1     O1        0.342024889964587    0.496517212651377    0.260024276611006  0.0000
  O2     O2        0.707814050965262    0.448304194345103    0.767829525560231  0.0000
  O1     O1        0.485992902925112    0.179856561495498    0.353971655364329  0.0000
  O3     O3        0.497744947000757    0.222617052184531    0.675763806452267  0.0000
  O2     O2        0.537312012913605    0.722560325206016    0.672386985604582  0.0000
  O1     O1        0.556051241451212    0.746591931458163    0.356847431004341  0.0000
  O1     O1        0.192602937148946    0.190822688217620    0.177907104243211  0.0000
  O3     O3        0.769706234669438    0.122441596189095    0.828373732624070  0.0000
  O3     O3        0.815477227346131    0.759343980283895    0.831087711335945  0.0000
  O1     O1        0.267577729591481    0.834405825562690    0.188409680799670  0.0000
  O3     O3        0.309043332800244    0.522494625546874    0.677226549323867  0.0000
  O1     O1        0.704365384104044    0.423068775123659    0.351084780549408  0.0000
  O3     O3        0.196706021176666    0.187940812718039    0.697610980384273  0.0000
  O1     O1        0.783594502259324    0.074532329374365    0.337602416542508  0.0000
  O1     O1        0.868146618019341    0.728354190172243    0.360748474032377  0.0000
  O2     O2        0.274401365519270    0.860130150371843    0.694587899442362  0.0000
  O3     O3        0.989872621425936    0.963060249822206    0.573200131371805  0.0000
  O1     O1        0.082847437482954    0.967077167364889    0.329966976076914  0.0000
  O3     O3        0.073821750477214    0.976092378200511    0.831375926426896  0.0000
  O1     O1        0.961152181031397    0.955963251645881    0.047989043061303  0.0000
