data_c00117.vasp
_audit_creation_method             Generated by GULP
_audit_author_name                 Salvador R. G. Balestra
_symmetry_space_group_name_H-M     'P 1             '
_symmetry_Int_Tables_number        1

loop_
_symmetry_equiv_pos_site_id
_symmetry_equiv_pos_as_xyz
_cell_length_a                        9.0531
_cell_length_b                        7.7197
_cell_length_c                       10.4231
_cell_angle_alpha                   88.0806
_cell_angle_beta                   108.1453
_cell_angle_gamma                   92.5115

loop_
_atom_site_label
_atom_site_type_symbol
_atom_site_fract_x
_atom_site_fract_y
_atom_site_fract_z
_atom_site_charge
  Ge     Ge        0.313819999999964    0.296860000000038    0.309830000000034  0.0000
  Ge     Ge        0.263984901043720    0.704672088047021    0.301758606140821  0.0000
  Ge     Ge        0.337683152948366    0.276258102461558    0.627406683048341  0.0000
  Ge     Ge        0.684184654942281    0.378933446464559    0.397834713765240  0.0000
  Ge     Ge        0.634451967700438    0.789628582558377    0.395019417305531  0.0000
  Ge     Ge        0.276017305119799    0.676931749658678    0.616550250809437  0.0000
  Ge     Ge        0.094853506324012    0.988543822955923    0.681477141538617  0.0000
  Ge     Ge        0.873684137119533    0.050020909041394    0.866437501937815  0.0000
  Si     Si        0.698038589247400    0.367861296619780    0.703225114036149  0.0000
  Si     Si        0.639183356337672    0.762096594671215    0.697975835001721  0.0000
  Si     Si        0.881105549778000    0.077650640566399    0.377711819611777  0.0000
  Si     Si        0.064990180172723    0.016027553997007    0.174316678753333  0.0000
  O1     O1        0.261782932647316    0.273344664774139    0.454454719593473  0.0000
  O3     O3        0.754774422471382    0.386650867296773    0.572792697500246  0.0000
  O3     O3        0.701640154895856    0.800013970233614    0.570570647745036  0.0000
  O1     O1        0.207842696024125    0.673869594205601    0.443386048750406  0.0000
  O1     O1        0.284010338949724    0.505593087132766    0.244492000711838  0.0000
  O2     O2        0.671082367855208    0.560588859780984    0.747872327204761  0.0000
  O1     O1        0.509625034389317    0.265035705748812    0.348416062492358  0.0000
  O3     O3        0.536141238405670    0.257881483507947    0.665932758562940  0.0000
  O3     O3        0.456015699180481    0.787632958729177    0.655509422910352  0.0000
  O1     O1        0.439282935008580    0.821147625548370    0.341737383827757  0.0000
  O3     O3        0.207065999983646    0.154343529015576    0.188652521791061  0.0000
  O3     O3        0.820649447425893    0.260984561726750    0.818970173296922  0.0000
  O3     O3        0.726942340787731    0.893261335571114    0.814226692540381  0.0000
  O3     O3        0.127504556661720    0.823926761919821    0.181721107975999  0.0000
  O1     O1        0.295790148243051    0.471021148252694    0.681554480010936  0.0000
  O1     O1        0.664688463975495    0.588663007870363    0.341380598718585  0.0000
  O1     O1        0.262909383863765    0.112304892293350    0.702969128677590  0.0000
  O3     O3        0.817356622698728    0.270536911066813    0.344471616644682  0.0000
  O3     O3        0.736097674159560    0.941166758522930    0.328672984478103  0.0000
  O1     O1        0.144832118669907    0.778982531805376    0.671772820296177  0.0000
  O3     O3        0.953261870181942    0.058231080109114    0.538827552150100  0.0000
  O2     O2        0.009346678218999    0.042981232296650    0.306132375475497  0.0000
  O1     O1        0.030595648188707    0.002986321947076    0.818202938662545  0.0000
  O3     O3        0.925074482781202    0.046643068081414    0.040572345648478  0.0000
