data_c00136.vasp
_audit_creation_method             Generated by GULP
_audit_author_name                 Salvador R. G. Balestra
_symmetry_space_group_name_H-M     'P 1             '
_symmetry_Int_Tables_number        1

loop_
_symmetry_equiv_pos_site_id
_symmetry_equiv_pos_as_xyz
_cell_length_a                        9.2917
_cell_length_b                        7.8189
_cell_length_c                       10.2675
_cell_angle_alpha                   90.2304
_cell_angle_beta                   108.3067
_cell_angle_gamma                   88.3005

loop_
_atom_site_label
_atom_site_type_symbol
_atom_site_fract_x
_atom_site_fract_y
_atom_site_fract_z
_atom_site_charge
  Ge     Ge        0.313819999999964    0.296860000000038    0.309830000000034  0.0000
  Ge     Ge        0.337402456107082    0.304036206535313    0.632112845474063  0.0000
  Ge     Ge        0.674055595978662    0.251262017681676    0.392589655965629  0.0000
  Ge     Ge        0.382032485374204    0.712377607374055    0.636324144850058  0.0000
  Ge     Ge        0.909598848443045    0.945523212627481    0.399130599749924  0.0000
  Ge     Ge        0.150660506509090    0.001148965230570    0.703759641385976  0.0000
  Ge     Ge        0.114035944606643    0.978598845754356    0.193992815196865  0.0000
  Ge     Ge        0.925359303901434    0.950710947767191    0.875957058930973  0.0000
  Si     Si        0.690664327759012    0.250630730926542    0.708827900752973  0.0000
  Si     Si        0.732452234784212    0.645121839418821    0.714619502731863  0.0000
  Si     Si        0.353550168198490    0.695821353282673    0.321462245008333  0.0000
  Si     Si        0.703899057018761    0.643482565926665    0.403973881646422  0.0000
  O1     O1        0.312160664916546    0.231680038964337    0.468953008508984  0.0000
  O3     O3        0.677082882861621    0.190891013184829    0.555856239628418  0.0000
  O2     O2        0.724805233818687    0.700373787712408    0.560720757337279  0.0000
  O3     O3        0.361545474157382    0.771669361451016    0.469455132985129  0.0000
  O3     O3        0.271980610211242    0.514612075852475    0.296616578408880  0.0000
  O2     O2        0.763085345930510    0.440080524181399    0.732570794639441  0.0000
  O1     O1        0.489312403295304    0.254843907298557    0.291680671339303  0.0000
  O3     O3        0.526003207908948    0.263113795209896    0.727572568204703  0.0000
  O3     O3        0.571401511467315    0.694311134906554    0.732990100279131  0.0000
  O2     O2        0.525142515293166    0.660891693141691    0.317334505704700  0.0000
  O1     O1        0.180697962169839    0.181248494299709    0.192682043298524  0.0000
  O3     O3        0.793823666900208    0.115068679313764    0.814919567799063  0.0000
  O3     O3        0.862590388181035    0.748202548006817    0.820059257047570  0.0000
  O3     O3        0.263774350000505    0.831209169455448    0.207638306630669  0.0000
  O1     O1        0.298921915755297    0.519539088180012    0.633503084268615  0.0000
  O3     O3        0.755253210500403    0.448691949360033    0.397490657750457  0.0000
  O1     O1        0.212719773782876    0.204033701000027    0.695338078951783  0.0000
  O1     O1        0.785042066600792    0.113901735671364    0.335143625513932  0.0000
  O3     O3        0.805501296167378    0.762388111332799    0.346944526260077  0.0000
  O1     O1        0.300684561693305    0.864558499056263    0.711253711766702  0.0000
  O1     O1        0.987192046740245    0.958346271329892    0.573756259914574  0.0000
  O1     O1        0.057301166065640    0.944087810059437    0.335558508485870  0.0000
  O1     O1        0.093562522796677    0.984952032774552    0.846983833372984  0.0000
  O1     O1        0.964656409660732    0.947593250040267    0.050762445838653  0.0000
