data_c00137.vasp
_audit_creation_method             Generated by GULP
_audit_author_name                 Salvador R. G. Balestra
_symmetry_space_group_name_H-M     'P 1             '
_symmetry_Int_Tables_number        1

loop_
_symmetry_equiv_pos_site_id
_symmetry_equiv_pos_as_xyz
_cell_length_a                        9.2649
_cell_length_b                        7.7978
_cell_length_c                       10.2824
_cell_angle_alpha                   90.1283
_cell_angle_beta                   107.8859
_cell_angle_gamma                   88.0491

loop_
_atom_site_label
_atom_site_type_symbol
_atom_site_fract_x
_atom_site_fract_y
_atom_site_fract_z
_atom_site_charge
  Ge     Ge        0.313819999999964    0.296860000000038    0.309830000000034  0.0000
  Ge     Ge        0.329979461771072    0.300297875783732    0.633070935769359  0.0000
  Ge     Ge        0.710672907629010    0.631056186629402    0.404948541239814  0.0000
  Ge     Ge        0.377276525700026    0.704498025435597    0.636136679928248  0.0000
  Ge     Ge        0.911141333206216    0.943167082625000    0.398767298802317  0.0000
  Ge     Ge        0.143638078255779    0.993837041697521    0.702856539281267  0.0000
  Ge     Ge        0.111897897921142    0.985242662465598    0.191191346224652  0.0000
  Ge     Ge        0.919529852016714    0.940809046215967    0.877745877377058  0.0000
  Si     Si        0.685455493093087    0.241878293589815    0.706449438635171  0.0000
  Si     Si        0.732839489281317    0.635092874250638    0.715463176357585  0.0000
  Si     Si        0.353174411849418    0.695455530790806    0.321362821246247  0.0000
  Si     Si        0.668589483549210    0.234490161450813    0.395927038867106  0.0000
  O1     O1        0.266425480898751    0.289389327641224    0.457998933971231  0.0000
  O2     O2        0.719981724203333    0.226265136266524    0.561955695804729  0.0000
  O3     O3        0.785537155873436    0.636693668687115    0.581446523000724  0.0000
  O3     O3        0.304667843873121    0.711036437973435    0.459226263088543  0.0000
  O3     O3        0.319323018273677    0.505779007255330    0.259540921305868  0.0000
  O2     O2        0.717750810608743    0.437953479750298    0.759507835410249  0.0000
  O3     O3        0.492266179456228    0.199378266086870    0.338639971535904  0.0000
  O3     O3        0.511655253321456    0.205807635058309    0.687561034104013  0.0000
  O3     O3        0.569984209292900    0.731816519198136    0.684125349609342  0.0000
  O3     O3        0.531251543026481    0.727028958855928    0.358832939039410  0.0000
  O1     O1        0.188246757546944    0.182454667758342    0.187180190532006  0.0000
  O3     O3        0.791227033476670    0.107965090759270    0.811609837643272  0.0000
  O3     O3        0.851714264275955    0.738296182003511    0.832459096419017  0.0000
  O3     O3        0.256300196660713    0.830248159778216    0.210030459700051  0.0000
  O1     O1        0.335859618234862    0.508191289042023    0.686887489064496  0.0000
  O3     O3        0.701296161069879    0.423104720959320    0.349211668340039  0.0000
  O1     O1        0.203767325064028    0.197974628340742    0.693811512889910  0.0000
  O3     O3        0.766305341850672    0.098380706589151    0.341431088443875  0.0000
  O1     O1        0.829035888969941    0.749049884801842    0.346243862495244  0.0000
  O1     O1        0.298001436876409    0.863127101982331    0.707084633233168  0.0000
  O1     O1        0.983924022694981    0.944934278916470    0.573421376580865  0.0000
  O1     O1        0.055288048290635    0.980107610421809    0.335658651408742  0.0000
  O1     O1        0.088082698678777    0.970480274868741    0.846548652855680  0.0000
  O1     O1        0.960502232985372    0.950018300818909    0.052476398765336  0.0000
