data_c00135.vasp
_audit_creation_method             Generated by GULP
_audit_author_name                 Salvador R. G. Balestra
_symmetry_space_group_name_H-M     'P 1             '
_symmetry_Int_Tables_number        1

loop_
_symmetry_equiv_pos_site_id
_symmetry_equiv_pos_as_xyz
_cell_length_a                        9.3391
_cell_length_b                        7.7164
_cell_length_c                       10.3090
_cell_angle_alpha                   84.9341
_cell_angle_beta                   108.8326
_cell_angle_gamma                   91.3636

loop_
_atom_site_label
_atom_site_type_symbol
_atom_site_fract_x
_atom_site_fract_y
_atom_site_fract_z
_atom_site_charge
  Ge     Ge        0.313819999999964    0.296860000000038    0.309830000000034  0.0000
  Ge     Ge        0.342873179841648    0.252185192890771    0.631353105453633  0.0000
  Ge     Ge        0.679020678837141    0.361653593278898    0.396375917819969  0.0000
  Ge     Ge        0.621286343027847    0.777656972532264    0.397577134584007  0.0000
  Ge     Ge        0.862240177220423    0.064844593112242    0.329720824080070  0.0000
  Ge     Ge        0.106223493988338    0.955693929704602    0.633554151714522  0.0000
  Ge     Ge        0.077585175214287    0.005015594151860    0.158560142921360  0.0000
  Ge     Ge        0.898116076419237    0.980051695213803    0.838358652234922  0.0000
  Si     Si        0.700376231372694    0.306852067137692    0.707748200797613  0.0000
  Si     Si        0.654164683609381    0.709432449197400    0.718038814959389  0.0000
  Si     Si        0.282362417657306    0.690025754190964    0.323556349020860  0.0000
  Si     Si        0.318415945481100    0.639910098241518    0.641438544381152  0.0000
  O1     O1        0.269134775399676    0.237709367343195    0.456691008668134  0.0000
  O3     O3        0.749930173656275    0.310156020791099    0.572974204099439  0.0000
  O3     O3        0.671392378713126    0.786634035282863    0.573575990566716  0.0000
  O2     O2        0.315084087955833    0.618099510032744    0.484217445788805  0.0000
  O3     O3        0.269621268710033    0.514366893597685    0.249477494842417  0.0000
  O2     O2        0.696183566142380    0.504248155654948    0.747237073978878  0.0000
  O1     O1        0.502750493510260    0.270712194663791    0.336388881074541  0.0000
  O3     O3        0.535173753800488    0.221186260870154    0.676569650336032  0.0000
  O2     O2        0.480255750949978    0.729984378666415    0.715463007313146  0.0000
  O3     O3        0.427908083409874    0.804008747197813    0.319010441938647  0.0000
  O1     O1        0.206698030473696    0.169335764128376    0.187213113976290  0.0000
  O3     O3        0.818155268965702    0.185250313213899    0.825379382461200  0.0000
  O3     O3        0.762610235576533    0.818432523476202    0.833994005556873  0.0000
  O3     O3        0.138711762577816    0.812032047310640    0.262435582583812  0.0000
  O3     O3        0.309919967754884    0.441778101705323    0.697145992879162  0.0000
  O1     O1        0.672722042267407    0.581516710535389    0.359641099110192  0.0000
  O1     O1        0.250022297417646    0.095808828132749    0.701407424721256  0.0000
  O1     O1        0.807218558312987    0.274585107109219    0.334454284311419  0.0000
  O1     O1        0.707507265469838    0.940837583350753    0.330621615529958  0.0000
  O3     O3        0.184067656595581    0.747233186621207    0.656076785371474  0.0000
  O1     O1        0.023491430631176    0.002052200950999    0.460522019557990  0.0000
  O1     O1        0.911916026758461    0.057174194312573    0.183955909803724  0.0000
  O1     O1        0.967912838574449    0.952952761181046    0.707172850983289  0.0000
  O1     O1        0.039579985856808    0.957371570930042    0.991018613034192  0.0000
