data_c00107.vasp
_audit_creation_method             Generated by GULP
_audit_author_name                 Salvador R. G. Balestra
_symmetry_space_group_name_H-M     'P 1             '
_symmetry_Int_Tables_number        1

loop_
_symmetry_equiv_pos_site_id
_symmetry_equiv_pos_as_xyz
_cell_length_a                        9.0439
_cell_length_b                        7.9115
_cell_length_c                       10.3430
_cell_angle_alpha                   85.0860
_cell_angle_beta                   107.3235
_cell_angle_gamma                   91.2732

loop_
_atom_site_label
_atom_site_type_symbol
_atom_site_fract_x
_atom_site_fract_y
_atom_site_fract_z
_atom_site_charge
  Ge     Ge        0.313819999999964    0.296860000000038    0.309830000000034  0.0000
  Ge     Ge        0.684459297965421    0.653700179572634    0.729614630604298  0.0000
  Ge     Ge        0.326953056429141    0.232983236357813    0.628016172864138  0.0000
  Ge     Ge        0.696026220230233    0.302282356749877    0.410004706249601  0.0000
  Ge     Ge        0.312960386665360    0.633129179436369    0.643569231344932  0.0000
  Ge     Ge        0.885243537350904    0.989438281966925    0.353071630426259  0.0000
  Ge     Ge        0.113561999225948    0.988246802401453    0.165813309098691  0.0000
  Ge     Ge        0.907775161270658    0.946690410562644    0.856420974104217  0.0000
  Si     Si        0.693638906715784    0.254403512393707    0.717083522816941  0.0000
  Si     Si        0.316384357488892    0.675940869697931    0.343013040909790  0.0000
  Si     Si        0.685710352870102    0.686358724870615    0.431258093841106  0.0000
  Si     Si        0.107801979989787    0.931251832792123    0.653754909479571  0.0000
  O1     O1        0.258785893665265    0.247273808833892    0.453824897988585  0.0000
  O3     O3        0.754563862421456    0.265140383975013    0.585337157037509  0.0000
  O3     O3        0.757837933169594    0.696286211356802    0.592278145328601  0.0000
  O3     O3        0.243919535016904    0.655003562914554    0.466871407470113  0.0000
  O3     O3        0.278037376978538    0.511433992904864    0.258449363930732  0.0000
  O3     O3        0.693231981683108    0.437319676102578    0.772866720963778  0.0000
  O1     O1        0.506110897144046    0.251561780482102    0.337146977276204  0.0000
  O3     O3        0.520467415646659    0.181972252119927    0.667507987195853  0.0000
  O1     O1        0.496054196809407    0.712981396283157    0.701922251618598  0.0000
  O2     O2        0.502175912213054    0.671228884883835    0.416327439319018  0.0000
  O1     O1        0.195545481203520    0.184704690649681    0.185245681747805  0.0000
  O3     O3        0.797215908489647    0.128604019500211    0.837469770332881  0.0000
  O1     O1        0.797360512193492    0.767527247796493    0.856021340852994  0.0000
  O3     O3        0.261406631054030    0.847187776597880    0.251926190550692  0.0000
  O1     O1        0.305935240103799    0.421882053443285    0.691704395394207  0.0000
  O3     O3        0.732134863688511    0.516606754378000    0.378324900169449  0.0000
  O3     O3        0.235031383564976    0.077617761915920    0.700446250111859  0.0000
  O1     O1        0.812128548024787    0.189033743940025    0.345565246034486  0.0000
  O3     O3        0.734304577203299    0.848459727971851    0.351498464226662  0.0000
  O3     O3        0.190659823611225    0.749286806821405    0.702823295218181  0.0000
  O3     O3        0.046601256704230    0.950169784105918    0.489903008838902  0.0000
  O1     O1        0.947813934207264    0.968953474438215    0.214156815713763  0.0000
  O3     O3        0.967875609660190    0.953750166752281    0.712313613205599  0.0000
  O1     O1        0.061346752841250    0.946649945963157    0.998280551521395  0.0000
