data_c00054.vasp
_audit_creation_method             Generated by GULP
_audit_author_name                 Salvador R. G. Balestra
_symmetry_space_group_name_H-M     'P 1             '
_symmetry_Int_Tables_number        1

loop_
_symmetry_equiv_pos_site_id
_symmetry_equiv_pos_as_xyz
_cell_length_a                        9.2877
_cell_length_b                        7.7857
_cell_length_c                       10.0259
_cell_angle_alpha                   91.9531
_cell_angle_beta                   107.4749
_cell_angle_gamma                   87.2147

loop_
_atom_site_label
_atom_site_type_symbol
_atom_site_fract_x
_atom_site_fract_y
_atom_site_fract_z
_atom_site_charge
  Ge     Ge        0.313819999999964    0.296860000000038    0.309830000000034  0.0000
  Ge     Ge        0.372666357042287    0.706614744619339    0.310742462710543  0.0000
  Ge     Ge        0.343473472481007    0.323221198352312    0.637427498416367  0.0000
  Ge     Ge        0.669256706065340    0.225235658906784    0.389746635961476  0.0000
  Ge     Ge        0.727905468347970    0.620942440653362    0.393466415260132  0.0000
  Ge     Ge        0.385500964233588    0.730397860006266    0.635137139949329  0.0000
  Ge     Ge        0.914422888367845    0.929922962335690    0.339552134140404  0.0000
  Ge     Ge        0.141359418381378    0.022731583068420    0.642681042185607  0.0000
  Ge     Ge        0.116139844494107    0.990232521549925    0.138523750664735  0.0000
  Si     Si        0.690606227821518    0.266100967025549    0.720594712003768  0.0000
  Si     Si        0.728898271230980    0.652081201278175    0.718255320326297  0.0000
  Si     Si        0.922298498274990    0.967459189080954    0.821227889149207  0.0000
  O1     O1        0.323354973644714    0.232959522215861    0.474639426990298  0.0000
  O3     O3        0.660589688001687    0.213599321439709    0.559287508421991  0.0000
  O3     O3        0.708820702837357    0.677324348787135    0.556340294365410  0.0000
  O1     O1        0.382186373392130    0.795538079850640    0.473085823963548  0.0000
  O1     O1        0.283385215889118    0.515768189832789    0.298110807459409  0.0000
  O2     O2        0.773719860492886    0.450211300738473    0.755503593013899  0.0000
  O1     O1        0.487012505214155    0.245897090303870    0.284555917589059  0.0000
  O3     O3        0.528157203821318    0.286927648946348    0.745561898041730  0.0000
  O3     O3        0.569431280393155    0.700936395510346    0.742912779743138  0.0000
  O1     O1        0.547606738992513    0.669721843110208    0.287449727841065  0.0000
  O1     O1        0.170666701567539    0.195258082598009    0.190033107067917  0.0000
  O2     O2        0.793841016840664    0.118560191381912    0.818685310304898  0.0000
  O2     O2        0.854969120140433    0.777255381504762    0.813580194509413  0.0000
  O1     O1        0.269071389620020    0.849907638886287    0.190271542775530  0.0000
  O1     O1        0.299655462614815    0.537213509713597    0.624432134990328  0.0000
  O1     O1        0.767114235427375    0.404058531385931    0.381340504991207  0.0000
  O1     O1        0.214222279823733    0.220072588728593    0.694637225936708  0.0000
  O1     O1        0.752076551129879    0.045966314555882    0.338303386733072  0.0000
  O1     O1        0.871351023703948    0.721160027065960    0.360539596076256  0.0000
  O1     O1        0.287775023500287    0.876677976310993    0.708189415524640  0.0000
  O1     O1        0.073741894570086    0.994869612408965    0.463210952535007  0.0000
  O1     O1        0.962173917073786    0.938737095694836    0.187294800133802  0.0000
  O3     O3        0.978670770983669    0.991994349157981    0.686792535506990  0.0000
  O3     O3        0.062258772187620    0.983728389906882    0.956285069394325  0.0000
