data_c00021.vasp
_audit_creation_method             Generated by GULP
_audit_author_name                 Salvador R. G. Balestra
_symmetry_space_group_name_H-M     'P 1             '
_symmetry_Int_Tables_number        1

loop_
_symmetry_equiv_pos_site_id
_symmetry_equiv_pos_as_xyz
_cell_length_a                        9.2934
_cell_length_b                        7.7439
_cell_length_c                       10.0687
_cell_angle_alpha                   83.7961
_cell_angle_beta                   108.2785
_cell_angle_gamma                   91.5610

loop_
_atom_site_label
_atom_site_type_symbol
_atom_site_fract_x
_atom_site_fract_y
_atom_site_fract_z
_atom_site_charge
  Ge     Ge        0.313819999999964    0.296860000000038    0.309830000000034  0.0000
  Ge     Ge        0.705843477287281    0.295969800268103    0.721277359234152  0.0000
  Ge     Ge        0.656297572799121    0.709507685736694    0.727704217781101  0.0000
  Ge     Ge        0.342523596310779    0.227848044917144    0.638503678917953  0.0000
  Ge     Ge        0.682517267731868    0.361030391931749    0.392317100818905  0.0000
  Ge     Ge        0.630745739008169    0.770422489287943    0.387160709690459  0.0000
  Ge     Ge        0.313399109777655    0.626672230048688    0.646903505084708  0.0000
  Ge     Ge        0.092442019304926    0.940415923288661    0.637305985872351  0.0000
  Ge     Ge        0.084949334570495    0.001208857877220    0.170447535388226  0.0000
  Si     Si        0.294797465997665    0.683812266139153    0.322836759914715  0.0000
  Si     Si        0.860070860742963    0.065788890222026    0.328858218063602  0.0000
  Si     Si        0.907093127915759    0.969212064856701    0.857568162483740  0.0000
  O1     O1        0.265430245624604    0.231037326931102    0.458049394432817  0.0000
  O1     O1        0.757512820397988    0.332854341693811    0.571866663372520  0.0000
  O1     O1        0.680072851071448    0.768454223865527    0.566093737195860  0.0000
  O3     O3        0.343663922125411    0.600083151742015    0.485922946196280  0.0000
  O3     O3        0.267248759328456    0.513145652667369    0.241170655276496  0.0000
  O1     O1        0.691605330494918    0.490921883476075    0.780261601939703  0.0000
  O1     O1        0.504921166587711    0.271939121469650    0.342821119434672  0.0000
  O1     O1        0.533693691620114    0.190905024261931    0.682701914158454  0.0000
  O1     O1        0.472904406001826    0.738900504198434    0.727224603047107  0.0000
  O3     O3        0.436965080446543    0.797712913944141    0.305759772808191  0.0000
  O1     O1        0.210818634777212    0.166884409508807    0.185925738242234  0.0000
  O3     O3        0.843503447419476    0.164141276884201    0.841866936127933  0.0000
  O3     O3        0.772301697866248    0.832418045219014    0.850818555033705  0.0000
  O3     O3        0.154375991802882    0.813358329256066    0.282665117889370  0.0000
  O1     O1        0.310491464713095    0.412062612269716    0.707613551221041  0.0000
  O1     O1        0.678414209565264    0.578844990876427    0.340028819765991  0.0000
  O1     O1        0.248212777810927    0.062869463236452    0.704455825427242  0.0000
  O3     O3        0.805340561981981    0.260898297362509    0.326321811493033  0.0000
  O3     O3        0.717009708345366    0.942646833520335    0.322566185585437  0.0000
  O1     O1        0.153207648625059    0.729501876634668    0.641693999177602  0.0000
  O3     O3        0.003529420349264    0.011004149746463    0.463661433816118  0.0000
  O3     O3        0.917213073571944    0.056739165261136    0.195336571455838  0.0000
  O3     O3        0.964303267050720    0.936544558046432    0.727056053988698  0.0000
  O3     O3        0.042100346686147    0.939724749331192    0.001725373316418  0.0000
