data_c00020.vasp
_audit_creation_method             Generated by GULP
_audit_author_name                 Salvador R. G. Balestra
_symmetry_space_group_name_H-M     'P 1             '
_symmetry_Int_Tables_number        1

loop_
_symmetry_equiv_pos_site_id
_symmetry_equiv_pos_as_xyz
_cell_length_a                        9.1091
_cell_length_b                        7.7714
_cell_length_c                       10.1801
_cell_angle_alpha                   87.5439
_cell_angle_beta                   106.1436
_cell_angle_gamma                   91.7470

loop_
_atom_site_label
_atom_site_type_symbol
_atom_site_fract_x
_atom_site_fract_y
_atom_site_fract_z
_atom_site_charge
  Ge     Ge        0.313819999999964    0.296860000000038    0.309830000000034  0.0000
  Ge     Ge        0.676803517817790    0.337375667651649    0.719345808391527  0.0000
  Ge     Ge        0.631809069965662    0.746304572312465    0.714150345923363  0.0000
  Ge     Ge        0.312796425515602    0.260958418355547    0.626731639175669  0.0000
  Ge     Ge        0.682609634082016    0.365230011373366    0.400537360694407  0.0000
  Ge     Ge        0.628813590518934    0.769766093114213    0.393154651170806  0.0000
  Ge     Ge        0.272736478981902    0.666417112630812    0.628016400554069  0.0000
  Ge     Ge        0.872007635227576    0.056868812291925    0.335943932981495  0.0000
  Ge     Ge        0.882347060041040    0.023706158429025    0.852218066490162  0.0000
  Si     Si        0.272327918358096    0.691243599267985    0.314634751023696  0.0000
  Si     Si        0.072972077268783    0.971001244062714    0.640021753378728  0.0000
  Si     Si        0.091029594106971    0.005030957947138    0.151381977468419  0.0000
  O1     O1        0.248367082572145    0.258941529008525    0.450629753722280  0.0000
  O1     O1        0.740437037017438    0.364127868986100    0.576131224482052  0.0000
  O1     O1        0.691643664419896    0.775742220271415    0.568380486464595  0.0000
  O3     O3        0.226736808991824    0.641432849345060    0.452362149372744  0.0000
  O3     O3        0.283820834487488    0.509994789460172    0.247554093555592  0.0000
  O1     O1        0.649217583383658    0.534534284091035    0.773419051736256  0.0000
  O1     O1        0.505978178188606    0.263238671501856    0.350006588982902  0.0000
  O1     O1        0.505077488908422    0.223151195831378    0.673909750711916  0.0000
  O1     O1        0.439611509656756    0.784602685540579    0.677052776806662  0.0000
  O3     O3        0.432786925525191    0.794476573906618    0.349305104978241  0.0000
  O3     O3        0.218537156384791    0.154533351579319    0.187584604131145  0.0000
  O1     O1        0.806651635814768    0.223426251859467    0.844718183574178  0.0000
  O1     O1        0.738058380766185    0.873125407006451    0.840237739784916  0.0000
  O2     O2        0.148110946015881    0.817737022493519    0.216991253249168  0.0000
  O1     O1        0.286415673924572    0.458073800001825    0.689454366844084  0.0000
  O1     O1        0.668401756308040    0.574470032297006    0.339742860872563  0.0000
  O3     O3        0.211176522715882    0.107577237329676    0.694212310895515  0.0000
  O1     O1        0.817949058263796    0.263810030741067    0.346509040788136  0.0000
  O1     O1        0.710396167781587    0.929931162659819    0.316618095883386  0.0000
  O3     O3        0.135372297374969    0.777437144241052    0.675444059635401  0.0000
  O3     O3        0.015317374115550    0.988338137316675    0.475323394551691  0.0000
  O3     O3        0.939938872630005    0.052048275681880    0.193825474715048  0.0000
  O3     O3        0.935911834810378    0.004376264227919    0.702142502093719  0.0000
  O3     O3        0.039543471286086    0.989210706117964    0.988234288389956  0.0000
