data_c00055.vasp
_audit_creation_method             Generated by GULP
_audit_author_name                 Salvador R. G. Balestra
_symmetry_space_group_name_H-M     'P 1             '
_symmetry_Int_Tables_number        1

loop_
_symmetry_equiv_pos_site_id
_symmetry_equiv_pos_as_xyz
_cell_length_a                        9.2206
_cell_length_b                        7.7731
_cell_length_c                       10.1889
_cell_angle_alpha                   88.4791
_cell_angle_beta                   107.6281
_cell_angle_gamma                   91.7920

loop_
_atom_site_label
_atom_site_type_symbol
_atom_site_fract_x
_atom_site_fract_y
_atom_site_fract_z
_atom_site_charge
  Ge     Ge        0.313819999999964    0.296860000000038    0.309830000000034  0.0000
  Ge     Ge        0.260738401611423    0.701007987099833    0.305002633701659  0.0000
  Ge     Ge        0.329253134056344    0.283510425855636    0.631493159639462  0.0000
  Ge     Ge        0.678641371899795    0.371175710386850    0.401256934938918  0.0000
  Ge     Ge        0.622049483121496    0.781780409284506    0.388641002909318  0.0000
  Ge     Ge        0.284080946791969    0.680823147255555    0.632734236441927  0.0000
  Ge     Ge        0.869875836854563    0.066186044734271    0.333616477651603  0.0000
  Ge     Ge        0.085627220693911    0.992442335463862    0.643224149914178  0.0000
  Ge     Ge        0.869088256075291    0.049560030260219    0.835859958655595  0.0000
  Si     Si        0.683430114330928    0.364457583319645    0.710713381425406  0.0000
  Si     Si        0.635765606775303    0.760424603569960    0.703600237315899  0.0000
  Si     Si        0.073293363633058    0.013346859454457    0.143051293257794  0.0000
  O1     O1        0.256077445790663    0.276810487751661    0.454809913751884  0.0000
  O3     O3        0.745792040546343    0.373471747959485    0.580259778371425  0.0000
  O3     O3        0.687706615661085    0.794036327136637    0.567618536087044  0.0000
  O1     O1        0.220273446405135    0.664542594775922    0.456322098936160  0.0000
  O1     O1        0.277101081649374    0.502011731081603    0.241701758563538  0.0000
  O2     O2        0.660531273159535    0.558777676550324    0.752977799454251  0.0000
  O1     O1        0.505572841947324    0.263748169012283    0.348005724448936  0.0000
  O3     O3        0.522791337005134    0.260514061155570    0.666646960691090  0.0000
  O3     O3        0.457954050651705    0.793871704973081    0.670713673396992  0.0000
  O1     O1        0.430603887321054    0.814313492363381    0.334751182003193  0.0000
  O3     O3        0.216319950455218    0.142899099751262    0.195744816643966  0.0000
  O3     O3        0.794309646706870    0.252685701792566    0.832697492869856  0.0000
  O3     O3        0.733313017241668    0.885125521693515    0.822003709992189  0.0000
  O3     O3        0.118179623296802    0.819565127030563    0.194212611851571  0.0000
  O1     O1        0.299853832183675    0.476699943905987    0.697393768836345  0.0000
  O1     O1        0.656598072412714    0.579501431852108    0.342074241872210  0.0000
  O1     O1        0.240023889964281    0.130830155429256    0.702779192843157  0.0000
  O1     O1        0.814316435521840    0.271739223528701    0.350421211879784  0.0000
  O1     O1        0.713991956148080    0.931912121265788    0.316607884939690  0.0000
  O1     O1        0.158488097666323    0.791060758642747    0.689553151357934  0.0000
  O1     O1        0.022737468950796    0.002274735300933    0.465485401354778  0.0000
  O3     O3        0.927767711378875    0.068650739850075    0.186570930526574  0.0000
  O1     O1        0.934832959922533    0.039706870175583    0.695673127926440  0.0000
  O3     O3        0.022871167716573    0.018479523926281    0.977421366891896  0.0000
