data_c00012.vasp
_audit_creation_method             Generated by GULP
_audit_author_name                 Salvador R. G. Balestra
_symmetry_space_group_name_H-M     'P 1             '
_symmetry_Int_Tables_number        1

loop_
_symmetry_equiv_pos_site_id
_symmetry_equiv_pos_as_xyz
_cell_length_a                        9.3003
_cell_length_b                        7.7594
_cell_length_c                       10.2289
_cell_angle_alpha                   86.2128
_cell_angle_beta                   106.5940
_cell_angle_gamma                   90.4117

loop_
_atom_site_label
_atom_site_type_symbol
_atom_site_fract_x
_atom_site_fract_y
_atom_site_fract_z
_atom_site_charge
  Ge     Ge        0.313819999999964    0.296860000000038    0.309830000000034  0.0000
  Ge     Ge        0.662383566204914    0.331358363847505    0.710757970878528  0.0000
  Ge     Ge        0.646591762012777    0.727371951927454    0.714176225944462  0.0000
  Ge     Ge        0.265237818251368    0.712153800744587    0.312950386783180  0.0000
  Ge     Ge        0.322375330958167    0.259897270502870    0.636769815960340  0.0000
  Ge     Ge        0.626853915142401    0.768028278383653    0.393902962674300  0.0000
  Ge     Ge        0.864372703610637    0.061700154680097    0.401424998493002  0.0000
  Ge     Ge        0.056527767971993    0.038835466908600    0.177723495294388  0.0000
  Ge     Ge        0.877952471586513    0.013234530353095    0.859024778139120  0.0000
  Si     Si        0.645400341630140    0.376356032115475    0.397108809835850  0.0000
  Si     Si        0.290063894793639    0.672383081223750    0.627193439331267  0.0000
  Si     Si        0.100942480074900    0.961462044495300    0.693934256552060  0.0000
  O1     O1        0.285262918627903    0.233383212462253    0.465601813325108  0.0000
  O3     O3        0.605921371231518    0.413302594223832    0.539292105922321  0.0000
  O1     O1        0.696758442531903    0.782345748633124    0.567987077254469  0.0000
  O3     O3        0.217869585071915    0.698166814810715    0.465299145237812  0.0000
  O1     O1        0.268619139229487    0.509793232751830    0.260098661531280  0.0000
  O1     O1        0.693561970885001    0.521986463108890    0.788214402643525  0.0000
  O3     O3        0.501595487393590    0.274413281369962    0.312630291663495  0.0000
  O1     O1        0.506921996799345    0.217939268192917    0.724651927282717  0.0000
  O3     O3        0.454224265201707    0.754389741883766    0.668704568047826  0.0000
  O1     O1        0.437114285909288    0.809621495219840    0.337585307413057  0.0000
  O1     O1        0.208863713533833    0.170702269464833    0.189639543690878  0.0000
  O1     O1        0.813983950812872    0.199136161392408    0.756408651549799  0.0000
  O1     O1        0.740210259058124    0.862725825648666    0.834981746721382  0.0000
  O1     O1        0.122836735779806    0.829972441547542    0.200830108170722  0.0000
  O3     O3        0.294171617965286    0.471587435478094    0.672873837258628  0.0000
  O3     O3        0.661080180728241    0.569203963162943    0.336131613117308  0.0000
  O3     O3        0.206278069997416    0.126978425109797    0.699852741023901  0.0000
  O3     O3        0.793005244177076    0.263071103063283    0.421463849558732  0.0000
  O1     O1        0.725608457017890    0.922391697871800    0.328187699803408  0.0000
  O2     O2        0.190136351597442    0.782840983972354    0.698022179240894  0.0000
  O3     O3        0.956856935593133    0.977835460562426    0.563316197032015  0.0000
  O1     O1        0.982486851450263    0.099966017818145    0.304236169132860  0.0000
  O3     O3        0.041043931227171    0.947205671742669    0.826668520210932  0.0000
  O1     O1        0.921025015014965    0.066893431862982    0.025538570625519  0.0000
