data_c00029.vasp
_audit_creation_method             Generated by GULP
_audit_author_name                 Salvador R. G. Balestra
_symmetry_space_group_name_H-M     'P 1             '
_symmetry_Int_Tables_number        1

loop_
_symmetry_equiv_pos_site_id
_symmetry_equiv_pos_as_xyz
_cell_length_a                        9.1457
_cell_length_b                        7.8387
_cell_length_c                       10.2074
_cell_angle_alpha                   88.9091
_cell_angle_beta                   107.4326
_cell_angle_gamma                   88.7405

loop_
_atom_site_label
_atom_site_type_symbol
_atom_site_fract_x
_atom_site_fract_y
_atom_site_fract_z
_atom_site_charge
  Ge     Ge        0.313819999999964    0.296860000000038    0.309830000000034  0.0000
  Ge     Ge        0.697506967183779    0.207154402212995    0.709233528887515  0.0000
  Ge     Ge        0.741477101546197    0.618788206091851    0.725616768156805  0.0000
  Ge     Ge        0.334022895160858    0.286863446749278    0.630634158551374  0.0000
  Ge     Ge        0.687112124890511    0.236372645834987    0.391064587233592  0.0000
  Ge     Ge        0.381225933350223    0.688105937188249    0.645247750305443  0.0000
  Ge     Ge        0.911254709354351    0.941151489809540    0.333762641924140  0.0000
  Ge     Ge        0.130561590584692    0.978330310843272    0.647866377280237  0.0000
  Ge     Ge        0.938400574276745    0.920825056077875    0.863283138169032  0.0000
  Si     Si        0.361293238710967    0.685893581564509    0.330067131150541  0.0000
  Si     Si        0.721671049797366    0.634029826327866    0.410518970695258  0.0000
  Si     Si        0.139777399164119    0.978227947877598    0.160581337521710  0.0000
  O1     O1        0.258115632192703    0.302443725377746    0.454029332532055  0.0000
  O1     O1        0.758486565047704    0.193734127671548    0.564862372687424  0.0000
  O3     O3        0.793821140842258    0.628417859363546    0.574894194136248  0.0000
  O3     O3        0.310488343446849    0.685093800613416    0.466766461987916  0.0000
  O3     O3        0.315583202715136    0.509144950763140    0.252974196614764  0.0000
  O1     O1        0.723891688358596    0.412751051441920    0.769020989448359  0.0000
  O1     O1        0.493650522486361    0.208529856056540    0.338977127355297  0.0000
  O1     O1        0.504897206289197    0.172742140637221    0.660139466358895  0.0000
  O1     O1        0.571144493417306    0.733613221287794    0.696461691755179  0.0000
  O2     O2        0.545518949830918    0.705638223136375    0.375109512267399  0.0000
  O3     O3        0.185650703586883    0.172290706324602    0.192965090733342  0.0000
  O1     O1        0.793373533769383    0.071718502319376    0.841722559107080  0.0000
  O1     O1        0.872462399210049    0.717789908968391    0.856353803506304  0.0000
  O2     O2        0.281923557534433    0.849953622484338    0.236398690829147  0.0000
  O1     O1        0.363359723905469    0.482380254350327    0.701519543381280  0.0000
  O3     O3        0.721835774169023    0.445715407582857    0.353814089004061  0.0000
  O1     O1        0.210421173807625    0.173748633870486    0.692066454460048  0.0000
  O1     O1        0.778251917971667    0.105312423663579    0.307118799117312  0.0000
  O3     O3        0.820009032530761    0.752068649215826    0.342818312412785  0.0000
  O1     O1        0.274992122407163    0.824600660159604    0.708111938989662  0.0000
  O1     O1        0.067219485099418    0.969295675695973    0.471477487991311  0.0000
  O3     O3        0.983891546072790    0.932362742955179    0.194633526116572  0.0000
  O1     O1        0.983664426836008    0.948287863103954    0.711612335820558  0.0000
  O3     O3        0.099597920678114    0.953799175408898    0.997691467606418  0.0000
