data_c00039.vasp
_audit_creation_method             Generated by GULP
_audit_author_name                 Salvador R. G. Balestra
_symmetry_space_group_name_H-M     'P 1             '
_symmetry_Int_Tables_number        1

loop_
_symmetry_equiv_pos_site_id
_symmetry_equiv_pos_as_xyz
_cell_length_a                        9.0904
_cell_length_b                        7.9359
_cell_length_c                       10.5413
_cell_angle_alpha                   87.6238
_cell_angle_beta                   109.3430
_cell_angle_gamma                   89.9079

loop_
_atom_site_label
_atom_site_type_symbol
_atom_site_fract_x
_atom_site_fract_y
_atom_site_fract_z
_atom_site_charge
  Ge     Ge        0.313819999999964    0.296860000000038    0.309830000000034  0.0000
  Ge     Ge        0.708984540763790    0.236597992731111    0.705798816534679  0.0000
  Ge     Ge        0.733279787289760    0.641350118616619    0.726495866085882  0.0000
  Ge     Ge        0.686310742614855    0.273495816057776    0.389991713338654  0.0000
  Ge     Ge        0.695817769383115    0.664580184595829    0.416539937509247  0.0000
  Ge     Ge        0.350448464334638    0.653864942584923    0.641980489906439  0.0000
  Ge     Ge        0.882500587099492    0.964125068256811    0.332375989009604  0.0000
  Ge     Ge        0.128936459317108    0.953988266419931    0.646456035293985  0.0000
  Ge     Ge        0.118000634836230    0.976765457226840    0.160123315570993  0.0000
  Si     Si        0.321937163432992    0.676089435420055    0.339917955402724  0.0000
  Si     Si        0.342024713703514    0.262039566319376    0.620774107920096  0.0000
  Si     Si        0.934213884296069    0.942963804201706    0.851335664925275  0.0000
  O3     O3        0.329254568791707    0.218733417283301    0.469793591662341  0.0000
  O1     O1        0.703212065905034    0.187094097735657    0.547592653529689  0.0000
  O1     O1        0.749805666270410    0.726986458538519    0.578867232452733  0.0000
  O3     O3        0.306875988988689    0.737991953248548    0.477900909834547  0.0000
  O3     O3        0.235988264573370    0.501437373260369    0.288939181635177  0.0000
  O1     O1        0.788343088700290    0.433206846446282    0.741729470023315  0.0000
  O1     O1        0.492918145801587    0.272397710163182    0.290726703288389  0.0000
  O3     O3        0.521827696488969    0.251091246971483    0.712837727458579  0.0000
  O1     O1        0.545693130415495    0.660367093707589    0.728926537329988  0.0000
  O3     O3        0.500449879739365    0.614001761054663    0.372760541469025  0.0000
  O1     O1        0.180592512098738    0.177044309835297    0.197553739899927  0.0000
  O3     O3        0.801281421451626    0.086862308158566    0.829571069138802  0.0000
  O3     O3        0.858672649119508    0.759411493017194    0.850049718750375  0.0000
  O3     O3        0.267986163213142    0.829820909422524    0.232226967771485  0.0000
  O3     O3        0.281334456914865    0.451016224766384    0.627433334979236  0.0000
  O1     O1        0.769722383318636    0.468854342380834    0.406249077917028  0.0000
  O3     O3        0.239192022375871    0.134236715999063    0.674184351089662  0.0000
  O1     O1        0.797876523315797    0.158073140457662    0.320600475370223  0.0000
  O1     O1        0.739173105584193    0.815531874939541    0.317468568508989  0.0000
  O1     O1        0.248073102595203    0.780207363178268    0.711136943132932  0.0000
  O1     O1        0.032649384047932    0.925775122482807    0.479886815461696  0.0000
  O1     O1        0.956758932295215    0.937093384825562    0.204464866790341  0.0000
  O3     O3        0.995772333434970    0.979423854319248    0.726653975185141  0.0000
  O3     O3        0.073598478424485    0.958983957253703    0.988948265149852  0.0000
