data_c00038.vasp
_audit_creation_method             Generated by GULP
_audit_author_name                 Salvador R. G. Balestra
_symmetry_space_group_name_H-M     'P 1             '
_symmetry_Int_Tables_number        1

loop_
_symmetry_equiv_pos_site_id
_symmetry_equiv_pos_as_xyz
_cell_length_a                        9.4447
_cell_length_b                        7.7070
_cell_length_c                       10.4437
_cell_angle_alpha                   84.0584
_cell_angle_beta                   110.4028
_cell_angle_gamma                   90.5927

loop_
_atom_site_label
_atom_site_type_symbol
_atom_site_fract_x
_atom_site_fract_y
_atom_site_fract_z
_atom_site_charge
  Ge     Ge        0.313819999999964    0.296860000000038    0.309830000000034  0.0000
  Ge     Ge        0.721398013983360    0.258357011419186    0.702418232418000  0.0000
  Ge     Ge        0.672451086428877    0.685625873831398    0.710633735331246  0.0000
  Ge     Ge        0.362679716688958    0.200573869275138    0.632431679107899  0.0000
  Ge     Ge        0.335630521312535    0.602085160517479    0.635656733299535  0.0000
  Ge     Ge        0.860848825226687    0.038573856422291    0.337769765887980  0.0000
  Ge     Ge        0.120343810636881    0.915238459860483    0.641251810238027  0.0000
  Ge     Ge        0.095541021452728    0.995072539608048    0.181005784226276  0.0000
  Ge     Ge        0.940456701982886    0.932776034000392    0.861840410981500  0.0000
  Si     Si        0.317195627733488    0.677256782246273    0.328629298024274  0.0000
  Si     Si        0.676873803084099    0.328871456016038    0.392141768209860  0.0000
  Si     Si        0.649769302422227    0.735784473599731    0.396927539820136  0.0000
  O1     O1        0.278492127359947    0.216446206103190    0.454808377635874  0.0000
  O3     O3        0.755653687742648    0.252371239701753    0.550123688217756  0.0000
  O3     O3        0.693311105093974    0.768108705639890    0.555827015375737  0.0000
  O3     O3        0.370044499175144    0.575574468896473    0.483177587463153  0.0000
  O3     O3        0.261608114552152    0.514814967831496    0.241409887945923  0.0000
  O1     O1        0.711124504839766    0.464407753491907    0.742679127197768  0.0000
  O3     O3        0.503616951225797    0.275317131581819    0.337846300703639  0.0000
  O1     O1        0.553108033518220    0.156473162355688    0.681885475841753  0.0000
  O1     O1        0.494914296537930    0.712201914314951    0.717804879944672  0.0000
  O2     O2        0.469100152705696    0.767986489250870    0.314967553568558  0.0000
  O1     O1        0.203186395678570    0.175137142346151    0.185750155569570  0.0000
  O1     O1        0.870644559440565    0.144557343243899    0.824089875641077  0.0000
  O1     O1        0.791908916320136    0.794382250990965    0.836658963632334  0.0000
  O3     O3        0.195273787939150    0.827553172299402    0.307191442629706  0.0000
  O1     O1        0.332566829682953    0.388876810557231    0.697386269548510  0.0000
  O2     O2        0.693499085777709    0.537920481249516    0.383171109108207  0.0000
  O1     O1        0.279276271116260    0.035311344600951    0.700112183753053  0.0000
  O3     O3        0.762858622882713    0.237064360403698    0.308661344992248  0.0000
  O3     O3        0.740297860329347    0.865448473997365    0.328063040337811  0.0000
  O1     O1        0.173625118713936    0.710901566374904    0.615298021172789  0.0000
  O1     O1        0.006727569777017    0.025402904867007    0.490370604770112  0.0000
  O1     O1        0.930534011783838    0.037179908658007    0.206818834101284  0.0000
  O1     O1        0.036536806695160    0.874690983281846    0.760332743406458  0.0000
  O1     O1        0.060492094787249    0.910413332429035    0.028576249267287  0.0000
