data_c00042.vasp
_audit_creation_method             Generated by GULP
_audit_author_name                 Salvador R. G. Balestra
_symmetry_space_group_name_H-M     'P 1             '
_symmetry_Int_Tables_number        1

loop_
_symmetry_equiv_pos_site_id
_symmetry_equiv_pos_as_xyz
_cell_length_a                        9.1350
_cell_length_b                        7.8179
_cell_length_c                       10.3072
_cell_angle_alpha                   89.2404
_cell_angle_beta                   106.4797
_cell_angle_gamma                   88.8989

loop_
_atom_site_label
_atom_site_type_symbol
_atom_site_fract_x
_atom_site_fract_y
_atom_site_fract_z
_atom_site_charge
  Ge     Ge        0.313819999999964    0.296860000000038    0.309830000000034  0.0000
  Ge     Ge        0.669930101472761    0.218887454557179    0.711575993025456  0.0000
  Ge     Ge        0.725531135700793    0.618101086734977    0.725737615841106  0.0000
  Ge     Ge        0.678766619768316    0.224780752938903    0.399134887609631  0.0000
  Ge     Ge        0.716774814002439    0.625170330014888    0.405907860693546  0.0000
  Ge     Ge        0.362721256113910    0.691908564126503    0.632258313083783  0.0000
  Ge     Ge        0.125844873656676    0.987189126347047    0.686391073670934  0.0000
  Ge     Ge        0.117417042313165    0.979854725067499    0.194075223204341  0.0000
  Ge     Ge        0.913408707933523    0.931123475054282    0.883744572760281  0.0000
  Si     Si        0.359705112254614    0.695254263819510    0.323386557308206  0.0000
  Si     Si        0.312846173431952    0.292901714111949    0.615346423553194  0.0000
  Si     Si        0.912942217035671    0.935387375490588    0.391978588077264  0.0000
  O3     O3        0.251509159360425    0.305046468089505    0.453274072687562  0.0000
  O1     O1        0.738441754799124    0.211026377437298    0.572778899707153  0.0000
  O1     O1        0.774804750656640    0.597792247975157    0.577917843574568  0.0000
  O3     O3        0.303168382365508    0.711491324653107    0.457619512268916  0.0000
  O3     O3        0.332629429844554    0.505377276620338    0.261919878244953  0.0000
  O1     O1        0.707246134806661    0.415636250437150    0.784532560363490  0.0000
  O1     O1        0.486819909149574    0.190192039609651    0.345233270230585  0.0000
  O3     O3        0.474706830296166    0.190152116839376    0.656367088377269  0.0000
  O1     O1        0.553460472060036    0.729131504917688    0.692450102817590  0.0000
  O3     O3        0.539317618740758    0.729336812233342    0.363790894899907  0.0000
  O1     O1        0.187379348808329    0.181897386054186    0.190249600243161  0.0000
  O1     O1        0.754216744826799    0.060823417690993    0.824401677460573  0.0000
  O1     O1        0.865350254668010    0.724844166374848    0.839338525821871  0.0000
  O3     O3        0.265152516815333    0.830144952732097    0.211796765530931  0.0000
  O3     O3        0.334487476413262    0.481562229288843    0.675904493411155  0.0000
  O1     O1        0.707822324643701    0.425684976290265    0.340295120969937  0.0000
  O3     O3        0.192971264047758    0.189195480054681    0.670280908273964  0.0000
  O3     O3        0.781137113383420    0.078891051615383    0.333708009544197  0.0000
  O3     O3        0.840800116551984    0.750632444376231    0.350265228632199  0.0000
  O1     O1        0.263375986301778    0.829461486026789    0.704007159754544  0.0000
  O3     O3        0.966563288900594    0.942114669339540    0.555311379576137  0.0000
  O3     O3        0.057594503311329    0.965513230004053    0.339435285682043  0.0000
  O1     O1        0.065194124302282    0.993869431162977    0.829092544632873  0.0000
  O1     O1        0.969134994160488    0.941878162292424    0.057558467796135  0.0000
