data_c00017.vasp
_audit_creation_method             Generated by GULP
_audit_author_name                 Salvador R. G. Balestra
_symmetry_space_group_name_H-M     'P 1             '
_symmetry_Int_Tables_number        1

loop_
_symmetry_equiv_pos_site_id
_symmetry_equiv_pos_as_xyz
_cell_length_a                        9.4158
_cell_length_b                        7.8107
_cell_length_c                       10.1823
_cell_angle_alpha                   84.4833
_cell_angle_beta                   110.2398
_cell_angle_gamma                   89.3084

loop_
_atom_site_label
_atom_site_type_symbol
_atom_site_fract_x
_atom_site_fract_y
_atom_site_fract_z
_atom_site_charge
  Ge     Ge        0.313819999999964    0.296860000000038    0.309830000000034  0.0000
  Ge     Ge        0.737211591871395    0.235070199623891    0.714952859795422  0.0000
  Ge     Ge        0.702444315534678    0.653190673521939    0.726804785656912  0.0000
  Ge     Ge        0.336845327094270    0.678764276265794    0.338303893607482  0.0000
  Ge     Ge        0.374546523449838    0.210271960402082    0.648170910258837  0.0000
  Ge     Ge        0.871786797893661    0.016665490837954    0.341648453072513  0.0000
  Ge     Ge        0.147925754300115    0.913837616236252    0.644978144703500  0.0000
  Ge     Ge        0.105719541679442    0.994822273750982    0.182452975089677  0.0000
  Ge     Ge        0.963901892900947    0.904802757320296    0.866120143327874  0.0000
  Si     Si        0.677299588677191    0.306930176006741    0.391906349068594  0.0000
  Si     Si        0.674832354283385    0.708677337939883    0.406575130031509  0.0000
  Si     Si        0.370804208656706    0.596751675537551    0.652582692985496  0.0000
  O1     O1        0.303713347315046    0.209131732991733    0.467579403481270  0.0000
  O3     O3        0.734626969814489    0.205972756894503    0.547313582299579  0.0000
  O3     O3        0.703061262292918    0.750796171931263    0.565570061875684  0.0000
  O3     O3        0.410944710486292    0.571691958558387    0.510379931863756  0.0000
  O1     O1        0.251646211258569    0.509126508010065    0.253617175271354  0.0000
  O1     O1        0.763956198731246    0.442192766010279    0.754102256529541  0.0000
  O3     O3        0.499504250272633    0.295437233842302    0.315308563398879  0.0000
  O1     O1        0.566286655540750    0.166369183704338    0.719072428122559  0.0000
  O3     O3        0.527004218677193    0.667776396679455    0.750527217082538  0.0000
  O3     O3        0.500034581972835    0.747879332164775    0.309527428575058  0.0000
  O1     O1        0.199148925230801    0.181296397486543    0.183525054045458  0.0000
  O1     O1        0.889283120349728    0.113722853725459    0.828656893752627  0.0000
  O1     O1        0.819881368582603    0.767466529038018    0.851156383624667  0.0000
  O1     O1        0.220858983415136    0.851456229748816    0.321330789594519  0.0000
  O3     O3        0.337172481549937    0.406202102635787    0.703129188741543  0.0000
  O2     O2        0.719685132012587    0.506736347731973    0.406384134544308  0.0000
  O1     O1        0.285302294578705    0.054109597307233    0.715680178923555  0.0000
  O3     O3        0.762001919506636    0.206599989454094    0.308335456919878  0.0000
  O3     O3        0.778272761241692    0.828266100186457    0.345403153514299  0.0000
  O3     O3        0.227422921006758    0.725265028571387    0.615613514510156  0.0000
  O1     O1        0.026819119478485    0.018468863964960    0.491140716564556  0.0000
  O1     O1        0.934012291878753    0.022917191455691    0.201341090783465  0.0000
  O1     O1        0.057757469771896    0.847918471638591    0.758645371982282  0.0000
  O1     O1        0.088957798004047    0.894278663755687    0.035732701938247  0.0000
