data_c00041.vasp
_audit_creation_method             Generated by GULP
_audit_author_name                 Salvador R. G. Balestra
_symmetry_space_group_name_H-M     'P 1             '
_symmetry_Int_Tables_number        1

loop_
_symmetry_equiv_pos_site_id
_symmetry_equiv_pos_as_xyz
_cell_length_a                        9.1074
_cell_length_b                        7.8109
_cell_length_c                       10.3232
_cell_angle_alpha                   87.9470
_cell_angle_beta                   105.7246
_cell_angle_gamma                   91.8098

loop_
_atom_site_label
_atom_site_type_symbol
_atom_site_fract_x
_atom_site_fract_y
_atom_site_fract_z
_atom_site_charge
  Ge     Ge        0.313819999999964    0.296860000000038    0.309830000000034  0.0000
  Ge     Ge        0.659650809334555    0.338014038839326    0.713039899681663  0.0000
  Ge     Ge        0.625391312284760    0.740654179039606    0.707653372117277  0.0000
  Ge     Ge        0.676381200816631    0.367280053412785    0.399753334129852  0.0000
  Ge     Ge        0.618659483964105    0.768820541806875    0.391393358974220  0.0000
  Ge     Ge        0.260706947746720    0.673120425723193    0.612712078057613  0.0000
  Ge     Ge        0.858133825885914    0.056856793439383    0.331261400380830  0.0000
  Ge     Ge        0.079543486170802    0.003324113920239    0.141690956055429  0.0000
  Ge     Ge        0.873701362006808    0.026427465628410    0.834616278653275  0.0000
  Si     Si        0.262741189202371    0.692224517927426    0.307867207069991  0.0000
  Si     Si        0.300791911152408    0.274707207887232    0.613842651790620  0.0000
  Si     Si        0.067694481856831    0.982550967854276    0.624486790773721  0.0000
  O3     O3        0.247882962431969    0.271490953791029    0.451852996046061  0.0000
  O1     O1        0.723875215966875    0.367848779304609    0.572248164660210  0.0000
  O1     O1        0.685275764271367    0.769852927349142    0.563640841483199  0.0000
  O3     O3        0.201849705034638    0.664976672220667    0.439299034630979  0.0000
  O3     O3        0.287242798232888    0.508873675061334    0.252577239884522  0.0000
  O1     O1        0.646256149478429    0.534587425261626    0.773358627372188  0.0000
  O1     O1        0.503653473006690    0.258607064377160    0.345891212965952  0.0000
  O3     O3        0.479787864829171    0.237591947152156    0.664398278511667  0.0000
  O1     O1        0.433213945470123    0.776400878330310    0.666867270279397  0.0000
  O3     O3        0.423352533286124    0.796217139660298    0.350304530647523  0.0000
  O1     O1        0.215680171210562    0.161310440384277    0.189885927595575  0.0000
  O1     O1        0.783908475424385    0.217167892647238    0.831199106506770  0.0000
  O1     O1        0.734395050896903    0.870929734720055    0.827086848148091  0.0000
  O3     O3        0.143066725159472    0.800574726772326    0.195860802583949  0.0000
  O3     O3        0.270910684227273    0.459745857664395    0.666795641043612  0.0000
  O1     O1        0.659904125584412    0.574284887714161    0.338161257179219  0.0000
  O2     O2        0.202570230989427    0.128085896004824    0.669525459015037  0.0000
  O1     O1        0.813802398429199    0.264709691710982    0.349855191137699  0.0000
  O1     O1        0.696760415511244    0.931518877593902    0.316683449852785  0.0000
  O3     O3        0.134846561520205    0.793869216765489    0.668776432834062  0.0000
  O3     O3        0.005624575525791    0.984090852705310    0.463087176109994  0.0000
  O1     O1        0.918332914953968    0.046754236515764    0.188625347705148  0.0000
  O3     O3        0.932009641701157    0.020514112538089    0.687375544822006  0.0000
  O1     O1        0.027538369298325    0.001782515239364    0.968567659145479  0.0000
