data_c00003.vasp
_audit_creation_method             Generated by GULP
_audit_author_name                 Salvador R. G. Balestra
_symmetry_space_group_name_H-M     'P 1             '
_symmetry_Int_Tables_number        1

loop_
_symmetry_equiv_pos_site_id
_symmetry_equiv_pos_as_xyz
_cell_length_a                        9.1432
_cell_length_b                        7.7279
_cell_length_c                       10.3696
_cell_angle_alpha                   88.3960
_cell_angle_beta                   107.9978
_cell_angle_gamma                   92.0033

loop_
_atom_site_label
_atom_site_type_symbol
_atom_site_fract_x
_atom_site_fract_y
_atom_site_fract_z
_atom_site_charge
  Ge     Ge        0.313819999999964    0.296860000000038    0.309830000000034  0.0000
  Ge     Ge        0.696851804398518    0.370938789115273    0.713714701777355  0.0000
  Ge     Ge        0.645227012510009    0.777075512326811    0.697855301027830  0.0000
  Ge     Ge        0.256986583148396    0.704387233174874    0.304087906203576  0.0000
  Ge     Ge        0.330925796595255    0.289847328958709    0.625947949790224  0.0000
  Ge     Ge        0.680268645397936    0.385914378858631    0.395741958543792  0.0000
  Ge     Ge        0.619530830383875    0.793028082064385    0.377948080657779  0.0000
  Ge     Ge        0.867834414359206    0.076465489623788    0.331086423709005  0.0000
  Ge     Ge        0.089079820324480    0.991490576115440    0.641846778305491  0.0000
  Si     Si        0.288855122717747    0.689068431805759    0.618080851722567  0.0000
  Si     Si        0.072332135896716    0.017603966435999    0.144046247798665  0.0000
  Si     Si        0.885888892347374    0.053288604996258    0.840392368519520  0.0000
  O1     O1        0.257155508546434    0.268484202739898    0.452793243897019  0.0000
  O1     O1        0.748480170223411    0.398850171957903    0.569234493359663  0.0000
  O1     O1        0.696085947641912    0.802459219770674    0.552015416451239  0.0000
  O3     O3        0.219794655497494    0.666393909077251    0.456093951328582  0.0000
  O1     O1        0.272225880655889    0.503532630945950    0.244197136743237  0.0000
  O1     O1        0.685160894985395    0.573607407035789    0.770254146757124  0.0000
  O1     O1        0.508068020995857    0.269277739125982    0.353240204687349  0.0000
  O1     O1        0.524584253894324    0.255261628347430    0.674621833923661  0.0000
  O3     O3        0.447779700568294    0.801654564669152    0.648961315270426  0.0000
  O1     O1        0.425174917553665    0.822954625672555    0.330684137326183  0.0000
  O3     O3        0.221462214025430    0.142552950049906    0.193375865215878  0.0000
  O3     O3        0.835472583959754    0.250386795546409    0.830590961533045  0.0000
  O3     O3        0.736709019272606    0.926966940484583    0.818607022011833  0.0000
  O3     O3        0.109866180877695    0.821809241996436    0.197039934982490  0.0000
  O3     O3        0.318510018276850    0.498124408880401    0.681713760989755  0.0000
  O1     O1        0.648006907276210    0.589566796499582    0.327149388795034  0.0000
  O1     O1        0.227720367181620    0.151684469548456    0.697717220667347  0.0000
  O1     O1        0.816805735569666    0.284360816532191    0.347294737016220  0.0000
  O1     O1        0.706079973321218    0.945465071393333    0.302153172675384  0.0000
  O3     O3        0.173752162050979    0.790338975580158    0.675870346917603  0.0000
  O1     O1        0.009785891565275    0.003564328972410    0.469123258588090  0.0000
  O3     O3        0.934692179691223    0.085291854101854    0.192294442873602  0.0000
  O3     O3        0.947721241572371    0.006766928899017    0.716103027326675  0.0000
  O2     O2        0.018233506410667    0.016375784499472    0.980264818124124  0.0000
