data_c00037.vasp
_audit_creation_method             Generated by GULP
_audit_author_name                 Salvador R. G. Balestra
_symmetry_space_group_name_H-M     'P 1             '
_symmetry_Int_Tables_number        1

loop_
_symmetry_equiv_pos_site_id
_symmetry_equiv_pos_as_xyz
_cell_length_a                        9.3675
_cell_length_b                        7.8034
_cell_length_c                       10.2981
_cell_angle_alpha                   84.6970
_cell_angle_beta                   109.4347
_cell_angle_gamma                   90.1649

loop_
_atom_site_label
_atom_site_type_symbol
_atom_site_fract_x
_atom_site_fract_y
_atom_site_fract_z
_atom_site_charge
  Ge     Ge        0.313819999999964    0.296860000000038    0.309830000000034  0.0000
  Ge     Ge        0.720678143701735    0.264155454161543    0.707695602429303  0.0000
  Ge     Ge        0.676924152796278    0.683807778420776    0.718264164323990  0.0000
  Ge     Ge        0.359468832467520    0.222399178169234    0.641276070904766  0.0000
  Ge     Ge        0.645847227389254    0.734419912181373    0.398028638388439  0.0000
  Ge     Ge        0.861816533530901    0.039603304395074    0.332341263129160  0.0000
  Ge     Ge        0.124764511733247    0.928926168280210    0.637539716972328  0.0000
  Ge     Ge        0.097866799886143    0.995317801532489    0.175342770988760  0.0000
  Ge     Ge        0.937240736869617    0.935416663564577    0.856441344230668  0.0000
  Si     Si        0.309092300598174    0.677428709371688    0.329527979486032  0.0000
  Si     Si        0.673823268246840    0.328966111939800    0.390895420805422  0.0000
  Si     Si        0.342282860129104    0.613852631272308    0.639046481988665  0.0000
  O1     O1        0.304571953603838    0.207605014811605    0.465216134828476  0.0000
  O3     O3        0.716463250799729    0.226972007599274    0.542874369417060  0.0000
  O1     O1        0.676250535521346    0.788615963855096    0.562550898650979  0.0000
  O2     O2        0.382718693823406    0.602202512159201    0.494745088935759  0.0000
  O3     O3        0.240545893346104    0.507988259172319    0.258658953781927  0.0000
  O1     O1        0.744022406440249    0.475855457914022    0.735968549097543  0.0000
  O3     O3        0.496821232812843    0.311498946969278    0.309399354767719  0.0000
  O1     O1        0.550879134381208    0.193296851544978    0.719130881755422  0.0000
  O3     O3        0.498413520117312    0.681985361542983    0.738327117290417  0.0000
  O3     O3        0.455213123618683    0.750852706253901    0.295995329197765  0.0000
  O1     O1        0.210429393630907    0.170556051671603    0.187927632098051  0.0000
  O1     O1        0.870551370479542    0.146044486626950    0.821261592636799  0.0000
  O1     O1        0.789319221876718    0.799714583346680    0.844013970633174  0.0000
  O3     O3        0.186595137761089    0.827980674059224    0.302276661387706  0.0000
  O3     O3        0.308939945544542    0.420108266150770    0.682230292837868  0.0000
  O3     O3        0.715691726139982    0.526899494671547    0.406060800047289  0.0000
  O1     O1        0.266717496464356    0.066617424758692    0.707282270060068  0.0000
  O3     O3        0.767677860968063    0.236581847820585    0.311735387510654  0.0000
  O1     O1        0.742200130262591    0.871645289686793    0.321222138523082  0.0000
  O3     O3        0.198843707723988    0.733447843315266    0.616281965967947  0.0000
  O1     O1        0.015401233959076    0.026010777456579    0.480686381612535  0.0000
  O1     O1        0.930153904561733    0.044475208886946    0.196345828943149  0.0000
  O1     O1        0.021067080740918    0.875288864173697    0.741871306906937  0.0000
  O1     O1        0.067987448406507    0.917117307671858    0.019103519323243  0.0000
