data_c00043.vasp
_audit_creation_method             Generated by GULP
_audit_author_name                 Salvador R. G. Balestra
_symmetry_space_group_name_H-M     'P 1             '
_symmetry_Int_Tables_number        1

loop_
_symmetry_equiv_pos_site_id
_symmetry_equiv_pos_as_xyz
_cell_length_a                        9.1932
_cell_length_b                        7.7575
_cell_length_c                       10.3536
_cell_angle_alpha                   87.9329
_cell_angle_beta                   106.4170
_cell_angle_gamma                   91.7534

loop_
_atom_site_label
_atom_site_type_symbol
_atom_site_fract_x
_atom_site_fract_y
_atom_site_fract_z
_atom_site_charge
  Ge     Ge        0.313819999999964    0.296860000000038    0.309830000000034  0.0000
  Ge     Ge        0.673163212930506    0.350449823905435    0.709936097394944  0.0000
  Ge     Ge        0.625188331710914    0.754224889717263    0.700756647099548  0.0000
  Ge     Ge        0.674576825372068    0.374308322516365    0.393308048830673  0.0000
  Ge     Ge        0.611535188656583    0.779930086467041    0.379887538176038  0.0000
  Ge     Ge        0.855181465035459    0.065498882359440    0.320432963206826  0.0000
  Ge     Ge        0.080235673960166    0.983373464361340    0.618025674229790  0.0000
  Ge     Ge        0.074818923921675    0.006405649200945    0.139447501349353  0.0000
  Ge     Ge        0.879048809249758    0.033234071689983    0.830175838638228  0.0000
  Si     Si        0.262274527829972    0.697697226761977    0.304442789699930  0.0000
  Si     Si        0.317674427082338    0.277192772362283    0.616362069583397  0.0000
  Si     Si        0.274503462847646    0.672426445945355    0.610966264468361  0.0000
  O3     O3        0.257799773236641    0.260163417307469    0.454981140032134  0.0000
  O1     O1        0.729692208381226    0.373049914359613    0.565889145085252  0.0000
  O1     O1        0.673650835235238    0.785281644805591    0.552432703684612  0.0000
  O2     O2        0.227649847117500    0.673174843170793    0.448488791620939  0.0000
  O3     O3        0.279836127398657    0.509779819619189    0.252689575674763  0.0000
  O1     O1        0.662934126123286    0.549362537916810    0.768559180924760  0.0000
  O1     O1        0.502934996699165    0.263743812663495    0.341925840722696  0.0000
  O3     O3        0.496047139477631    0.243881152093978    0.666704027678355  0.0000
  O3     O3        0.431409329914509    0.778115290329084    0.664539404031355  0.0000
  O3     O3        0.417406022193441    0.808754200307964    0.324790558565488  0.0000
  O1     O1        0.213013625765526    0.162061551913812    0.189291721270697  0.0000
  O1     O1        0.803645089620010    0.233465844155316    0.827296228698072  0.0000
  O1     O1        0.727722390486494    0.891479658481857    0.817693336304954  0.0000
  O3     O3        0.128936145793658    0.800878418354107    0.202209088529321  0.0000
  O2     O2        0.292081996801742    0.472031658874895    0.660937749947224  0.0000
  O1     O1        0.653782160009405    0.582253236774568    0.331486673190903  0.0000
  O3     O3        0.221184795780550    0.140287967479088    0.678400567864203  0.0000
  O1     O1        0.810276670781461    0.273818238020082    0.341740153137311  0.0000
  O1     O1        0.695295928465536    0.940285322009101    0.308509021483989  0.0000
  O3     O3        0.152028744913356    0.775336648686929    0.658341973915451  0.0000
  O1     O1        0.008342189490897    0.995624349329387    0.446684569569325  0.0000
  O1     O1        0.911414845187191    0.058135939813384    0.176193793086552  0.0000
  O1     O1        0.936208574686013    0.009744284237884    0.686651062700791  0.0000
  O1     O1        0.029360475859417    0.997101710758229    0.966611087998973  0.0000
