data_c00007.vasp
_audit_creation_method             Generated by GULP
_audit_author_name                 Salvador R. G. Balestra
_symmetry_space_group_name_H-M     'P 1             '
_symmetry_Int_Tables_number        1

loop_
_symmetry_equiv_pos_site_id
_symmetry_equiv_pos_as_xyz
_cell_length_a                        9.0530
_cell_length_b                        7.7611
_cell_length_c                       10.3780
_cell_angle_alpha                   89.1017
_cell_angle_beta                   106.7701
_cell_angle_gamma                   91.6235

loop_
_atom_site_label
_atom_site_type_symbol
_atom_site_fract_x
_atom_site_fract_y
_atom_site_fract_z
_atom_site_charge
  Ge     Ge        0.313819999999964    0.296860000000038    0.309830000000034  0.0000
  Ge     Ge        0.695486879105413    0.378454018932447    0.710562387957856  0.0000
  Ge     Ge        0.630988947256066    0.779131372748614    0.698295708964280  0.0000
  Ge     Ge        0.270810550610560    0.704069529302332    0.295579053830294  0.0000
  Ge     Ge        0.328778945074073    0.294383086035891    0.625089868759982  0.0000
  Ge     Ge        0.681311420891437    0.382145165251946    0.392960027987789  0.0000
  Ge     Ge        0.636622358500720    0.787659031265999    0.386821353867293  0.0000
  Ge     Ge        0.089776679334965    0.999143480696601    0.670834367560874  0.0000
  Ge     Ge        0.878268447489294    0.057049271866643    0.868648289537875  0.0000
  Si     Si        0.273680589941757    0.691827048353988    0.602184029166139  0.0000
  Si     Si        0.877868751504245    0.076097027764599    0.372744905027172  0.0000
  Si     Si        0.072682519598857    0.015248256549389    0.174681442044919  0.0000
  O1     O1        0.258243503603711    0.271366062007108    0.453993399747367  0.0000
  O1     O1        0.743940897919638    0.409121619251615    0.563913472306335  0.0000
  O1     O1        0.698136610721311    0.800402621102287    0.559392954911857  0.0000
  O3     O3        0.219118200907844    0.667212314426064    0.441956108039919  0.0000
  O1     O1        0.284774978761586    0.501506555297293    0.239886514256175  0.0000
  O1     O1        0.673501100361623    0.578469238653510    0.769393541124724  0.0000
  O1     O1        0.509096963886722    0.266926419703106    0.352740881502943  0.0000
  O1     O1        0.523382665190947    0.262482241088130    0.675753258674633  0.0000
  O3     O3        0.433011267118579    0.803851238290022    0.642992357741566  0.0000
  O1     O1        0.441450542242020    0.820696271866944    0.331894286785496  0.0000
  O3     O3        0.213298744315797    0.151820891990596    0.189107853596970  0.0000
  O1     O1        0.838117935620913    0.267206654617357    0.822389806564913  0.0000
  O1     O1        0.712321260985431    0.934079693045606    0.812821627600399  0.0000
  O3     O3        0.133693098723933    0.822398450755447    0.180433666007954  0.0000
  O3     O3        0.300753937271357    0.504192641662668    0.670255701228685  0.0000
  O1     O1        0.660656322547923    0.586338203230833    0.327982072492775  0.0000
  O1     O1        0.236992165635011    0.150125091080265    0.703466503361150  0.0000
  O3     O3        0.811331340068140    0.266228843639847    0.337112184359657  0.0000
  O3     O3        0.739610612596434    0.936464267321565    0.320391000761998  0.0000
  O3     O3        0.146101506397285    0.793966255912033    0.646604728666084  0.0000
  O3     O3        0.941542258037780    0.063124992539554    0.534104089474660  0.0000
  O2     O2        0.014131434101749    0.043028926990577    0.306798562385477  0.0000
  O1     O1        0.020335534351833    0.981514538992270    0.807480117536966  0.0000
  O3     O3        0.935824689711665    0.046337605832136    0.042481919906589  0.0000
