data_c00031.vasp
_audit_creation_method             Generated by GULP
_audit_author_name                 Salvador R. G. Balestra
_symmetry_space_group_name_H-M     'P 1             '
_symmetry_Int_Tables_number        1

loop_
_symmetry_equiv_pos_site_id
_symmetry_equiv_pos_as_xyz
_cell_length_a                        9.0263
_cell_length_b                        7.8532
_cell_length_c                       10.2270
_cell_angle_alpha                   88.3645
_cell_angle_beta                   105.8452
_cell_angle_gamma                   88.8502

loop_
_atom_site_label
_atom_site_type_symbol
_atom_site_fract_x
_atom_site_fract_y
_atom_site_fract_z
_atom_site_charge
  Ge     Ge        0.313819999999964    0.296860000000038    0.309830000000034  0.0000
  Ge     Ge        0.684779500999174    0.198503101234536    0.714885762688960  0.0000
  Ge     Ge        0.729189162176793    0.606492175917353    0.732276460836808  0.0000
  Ge     Ge        0.319417957608252    0.277116825030431    0.628402483770063  0.0000
  Ge     Ge        0.690578398449955    0.230742217922608    0.399415359021910  0.0000
  Ge     Ge        0.366650077314661    0.679443544322001    0.642702341453711  0.0000
  Ge     Ge        0.111479840281702    0.967957884150728    0.643777895127403  0.0000
  Ge     Ge        0.136058731010710    0.973758331064689    0.165378148715313  0.0000
  Ge     Ge        0.922194920305764    0.909466519063870    0.865170382142016  0.0000
  Si     Si        0.363374471606334    0.682620430275624    0.334458969919027  0.0000
  Si     Si        0.727830621538625    0.622371849077219    0.424079283111942  0.0000
  Si     Si        0.905393273036466    0.934052934724681    0.342146475380080  0.0000
  O1     O1        0.253959470850794    0.293961013608822    0.453664006075079  0.0000
  O1     O1        0.751780156221836    0.191725500855272    0.571706724656852  0.0000
  O3     O3        0.794196114117864    0.607922384398882    0.586153753478987  0.0000
  O3     O3        0.299839427483150    0.687605949384814    0.466031086705958  0.0000
  O3     O3        0.315893523554158    0.509134400193519    0.255686664926852  0.0000
  O1     O1        0.707716067340248    0.401580305381753    0.777531952320593  0.0000
  O1     O1        0.496508441337959    0.208916027223379    0.340054984680151  0.0000
  O1     O1        0.491713155093545    0.162253230088771    0.663659846283941  0.0000
  O1     O1        0.557877245233175    0.722752758556179    0.696995527171398  0.0000
  O2     O2        0.549168025267756    0.685220433831181    0.391075317317606  0.0000
  O1     O1        0.187975544912750    0.180526597079786    0.191105822714787  0.0000
  O1     O1        0.778021003217863    0.062545148130619    0.846252394062602  0.0000
  O1     O1        0.854559706627231    0.707037136216605    0.862006360305624  0.0000
  O3     O3        0.296827900127189    0.845066639222285    0.237884626748657  0.0000
  O1     O1        0.345564629027603    0.473032398109200    0.696655168215617  0.0000
  O3     O3        0.736750940518614    0.438613941995238    0.362877728977314  0.0000
  O1     O1        0.189719668753012    0.163687032079802    0.686327539320468  0.0000
  O3     O3        0.782835883593288    0.090202736597929    0.319238543031356  0.0000
  O2     O2        0.823876329445663    0.757417288683546    0.362228323869933  0.0000
  O1     O1        0.256561154744176    0.815810442912744    0.704129432128597  0.0000
  O3     O3        0.052353489744220    0.964506912243859    0.467347982372594  0.0000
  O3     O3        0.970518751857416    0.921705026411796    0.211318588240905  0.0000
  O1     O1        0.963380448191704    0.935284866696586    0.709775794584360  0.0000
  O1     O1        0.082418502623576    0.941402340125173    0.993420473940078  0.0000
