data_c00051.vasp
_audit_creation_method             Generated by GULP
_audit_author_name                 Salvador R. G. Balestra
_symmetry_space_group_name_H-M     'P 1             '
_symmetry_Int_Tables_number        1

loop_
_symmetry_equiv_pos_site_id
_symmetry_equiv_pos_as_xyz
_cell_length_a                        9.2980
_cell_length_b                        7.7174
_cell_length_c                       10.1376
_cell_angle_alpha                   83.8014
_cell_angle_beta                   107.5087
_cell_angle_gamma                   91.3740

loop_
_atom_site_label
_atom_site_type_symbol
_atom_site_fract_x
_atom_site_fract_y
_atom_site_fract_z
_atom_site_charge
  Ge     Ge        0.313819999999964    0.296860000000038    0.309830000000034  0.0000
  Ge     Ge        0.640562889909158    0.696904234590022    0.733082055010621  0.0000
  Ge     Ge        0.321230703928237    0.229030853708101    0.631145545234968  0.0000
  Ge     Ge        0.676798555073799    0.362367321815962    0.403253722085545  0.0000
  Ge     Ge        0.620334603276539    0.775465877825064    0.399398485801332  0.0000
  Ge     Ge        0.297540437965224    0.626315663884372    0.653372105431750  0.0000
  Ge     Ge        0.863969793444975    0.064470653004869    0.337984092962923  0.0000
  Ge     Ge        0.084823506676783    0.006504861212539    0.163786981516662  0.0000
  Ge     Ge        0.892692539883331    0.970763109993594    0.848198176055581  0.0000
  Si     Si        0.675770481480732    0.290026828788012    0.716841223792144  0.0000
  Si     Si        0.284743716778081    0.687224185830989    0.328488233744791  0.0000
  Si     Si        0.086696378838848    0.938229695545714    0.637177773318149  0.0000
  O1     O1        0.254589372018895    0.235435061700834    0.452975701681533  0.0000
  O3     O3        0.733734871223206    0.327497930230303    0.583035539282839  0.0000
  O1     O1        0.665750166941692    0.775902792979219    0.576368422313580  0.0000
  O3     O3        0.320891365207068    0.608644510699815    0.490092445571643  0.0000
  O3     O3        0.271780272383608    0.515909087456502    0.248900308111519  0.0000
  O3     O3        0.657680938328804    0.472042097909759    0.771846550987950  0.0000
  O1     O1        0.503491835132168    0.267789175336142    0.341636456124353  0.0000
  O3     O3        0.513957773702020    0.194000152895659    0.675228738840204  0.0000
  O1     O1        0.459294348589247    0.728609354056368    0.737290291593577  0.0000
  O3     O3        0.427906805038516    0.804984652325903    0.320103648153279  0.0000
  O1     O1        0.214528054929275    0.169133296242653    0.185425580748898  0.0000
  O3     O3        0.795192864834904    0.164648393743334    0.831278955703148  0.0000
  O1     O1        0.771181948934666    0.800704711584574    0.854839465350113  0.0000
  O3     O3        0.141121195646241    0.811348305525964    0.270469943168191  0.0000
  O1     O1        0.282371800781439    0.408751871087128    0.702124841190094  0.0000
  O1     O1        0.669808413761183    0.581263072427545    0.355969969517454  0.0000
  O3     O3        0.231487099462042    0.056378886449125    0.697028431955241  0.0000
  O1     O1        0.812935840352491    0.273135286252643    0.349874605240840  0.0000
  O1     O1        0.706597421224595    0.941769558915010    0.329950614169020  0.0000
  O3     O3        0.142550633697724    0.736746464300171    0.660466193861660  0.0000
  O3     O3        0.019245289426788    0.988600284860758    0.472727031371664  0.0000
  O1     O1        0.920856656806619    0.065363867327167    0.192474980967985  0.0000
  O3     O3        0.955790780158684    0.958747245932679    0.705108211685764  0.0000
  O1     O1        0.042285614132037    0.959666907983719    0.994208098944316  0.0000
