data_c00033.vasp
_audit_creation_method             Generated by GULP
_audit_author_name                 Salvador R. G. Balestra
_symmetry_space_group_name_H-M     'P 1             '
_symmetry_Int_Tables_number        1

loop_
_symmetry_equiv_pos_site_id
_symmetry_equiv_pos_as_xyz
_cell_length_a                        9.3650
_cell_length_b                        7.8119
_cell_length_c                       10.1633
_cell_angle_alpha                   83.3815
_cell_angle_beta                   110.5125
_cell_angle_gamma                   90.7227

loop_
_atom_site_label
_atom_site_type_symbol
_atom_site_fract_x
_atom_site_fract_y
_atom_site_fract_z
_atom_site_charge
  Ge     Ge        0.313819999999964    0.296860000000038    0.309830000000034  0.0000
  Ge     Ge        0.728670637685056    0.260822240558574    0.716295147274977  0.0000
  Ge     Ge        0.686321313477762    0.678822979302493    0.728465407317256  0.0000
  Ge     Ge        0.364839466340016    0.210119018623141    0.649839307879051  0.0000
  Ge     Ge        0.642676588630188    0.738640059573923    0.397773617768604  0.0000
  Ge     Ge        0.341159018818149    0.605985867997158    0.651465253662767  0.0000
  Ge     Ge        0.860509163977212    0.048065362270421    0.335638000604392  0.0000
  Ge     Ge        0.122878727818425    0.924291306306126    0.648840736681732  0.0000
  Ge     Ge        0.094725211649167    0.996926701735842    0.177669176347825  0.0000
  Si     Si        0.306516880245542    0.675093676562683    0.329847762130636  0.0000
  Si     Si        0.674629710960981    0.336149961792713    0.391444351178417  0.0000
  Si     Si        0.938877977947731    0.932678905783852    0.863623780058554  0.0000
  O1     O1        0.309421710966917    0.202763614631606    0.469140566498010  0.0000
  O3     O3        0.719493088081391    0.231430262417100    0.547306701380611  0.0000
  O1     O1        0.674112590466386    0.785381518736016    0.566046330645337  0.0000
  O3     O3        0.384292754389031    0.597488233326250    0.496748671600066  0.0000
  O3     O3        0.235900164579591    0.507016831747312    0.257015459414797  0.0000
  O1     O1        0.756649787999821    0.471148941133609    0.748148016376581  0.0000
  O3     O3        0.495997610340367    0.318943848774140    0.307653958199568  0.0000
  O1     O1        0.559220391078770    0.193785492956875    0.729814154508025  0.0000
  O1     O1        0.514395872480853    0.673698626151133    0.756137877529574  0.0000
  O3     O3        0.450143764273686    0.753351439338702    0.292453002435402  0.0000
  O1     O1        0.211555562248493    0.168488982181429    0.187071655509602  0.0000
  O3     O3        0.878823555763278    0.131757581842091    0.830813856614508  0.0000
  O3     O3        0.802171860968173    0.802833294743669    0.852256840442351  0.0000
  O3     O3        0.183792933888525    0.825038474388052    0.307096408064192  0.0000
  O1     O1        0.305486741928353    0.395604338539842    0.693358556610358  0.0000
  O3     O3        0.716773555086168    0.533903007774525    0.405432562738878  0.0000
  O1     O1        0.282469426389061    0.040536804341881    0.716455976092415  0.0000
  O3     O3        0.767859967477321    0.246058995631094    0.311975379151580  0.0000
  O1     O1        0.737882764607640    0.881984354397599    0.321885759812298  0.0000
  O1     O1        0.183417954119378    0.723348477346781    0.631404549027056  0.0000
  O1     O1        0.015135963651932    0.031683308949954    0.489552140547718  0.0000
  O1     O1        0.930638243252617    0.053242453529550    0.199823526592492  0.0000
  O3     O3        0.016851802129123    0.882334996327455    0.755336166695080  0.0000
  O3     O3        0.062125621744787    0.912724165675817    0.020244089779340  0.0000
