data_c00016.vasp
_audit_creation_method             Generated by GULP
_audit_author_name                 Salvador R. G. Balestra
_symmetry_space_group_name_H-M     'P 1             '
_symmetry_Int_Tables_number        1

loop_
_symmetry_equiv_pos_site_id
_symmetry_equiv_pos_as_xyz
_cell_length_a                        9.0974
_cell_length_b                        7.7461
_cell_length_c                       10.3874
_cell_angle_alpha                   89.6220
_cell_angle_beta                   105.8055
_cell_angle_gamma                   91.6497

loop_
_atom_site_label
_atom_site_type_symbol
_atom_site_fract_x
_atom_site_fract_y
_atom_site_fract_z
_atom_site_charge
  Ge     Ge        0.313819999999964    0.296860000000038    0.309830000000034  0.0000
  Ge     Ge        0.682425217146809    0.371051168979484    0.708626940576772  0.0000
  Ge     Ge        0.615215961013995    0.776761157263935    0.695060013524998  0.0000
  Ge     Ge        0.274161019184489    0.695299950718627    0.288696761899822  0.0000
  Ge     Ge        0.321640876618125    0.278498726727916    0.622881771079123  0.0000
  Ge     Ge        0.258596335964811    0.681849639192612    0.603189081052709  0.0000
  Ge     Ge        0.073634831060332    0.993912777057212    0.672237353008136  0.0000
  Ge     Ge        0.062066182480182    0.011169569473249    0.178798220231484  0.0000
  Ge     Ge        0.865292723782701    0.058320437030792    0.870023880360835  0.0000
  Si     Si        0.674402463536349    0.376341825204459    0.404906722859604  0.0000
  Si     Si        0.630867759147486    0.769347294920760    0.390570791577747  0.0000
  Si     Si        0.860384759316910    0.066630342299764    0.384258191827349  0.0000
  O1     O1        0.253366602746377    0.266528176726147    0.451596329533063  0.0000
  O3     O3        0.740223260376439    0.392173940028313    0.563192024965644  0.0000
  O3     O3        0.675581830606343    0.787674804516457    0.550143111476480  0.0000
  O1     O1        0.222833002065989    0.659255415679197    0.433726570451602  0.0000
  O1     O1        0.281847206125057    0.492454399422185    0.229489982331734  0.0000
  O1     O1        0.654457008926300    0.572967508092416    0.760968500332807  0.0000
  O3     O3        0.510261863159028    0.281101286142404    0.367977404261847  0.0000
  O1     O1        0.515099838615100    0.250064458915575    0.674758220427814  0.0000
  O1     O1        0.423685848999849    0.807867710239307    0.656770728734834  0.0000
  O3     O3        0.452496762853909    0.802577473979931    0.327507638675743  0.0000
  O1     O1        0.217922430833198    0.148696276994388    0.194927549187517  0.0000
  O1     O1        0.822495003249277    0.268218494239318    0.824373884674269  0.0000
  O1     O1        0.707017413648555    0.928112147442164    0.807935469785460  0.0000
  O1     O1        0.137664571380042    0.810434093812459    0.180121604276169  0.0000
  O1     O1        0.285962572199354    0.481532722565480    0.673518578703818  0.0000
  O2     O2        0.663631239529550    0.573676565066930    0.347179220538404  0.0000
  O1     O1        0.232751100844893    0.124923105794647    0.695748105317094  0.0000
  O2     O2        0.783172787859570    0.254777778125467    0.344233965919387  0.0000
  O2     O2        0.734131509555128    0.909526762742997    0.335249018690035  0.0000
  O1     O1        0.113292078086967    0.785443315392690    0.641566569840308  0.0000
  O3     O3        0.924195123418340    0.067685576254542    0.544262039535479  0.0000
  O3     O3        0.997171143331387    0.039216540917711    0.320088643437169  0.0000
  O1     O1        0.016022669391426    0.991377268349929    0.816137196534806  0.0000
  O1     O1        0.915737284078649    0.046381386434870    0.041914470559024  0.0000
