data_c00028.vasp
_audit_creation_method             Generated by GULP
_audit_author_name                 Salvador R. G. Balestra
_symmetry_space_group_name_H-M     'P 1             '
_symmetry_Int_Tables_number        1

loop_
_symmetry_equiv_pos_site_id
_symmetry_equiv_pos_as_xyz
_cell_length_a                        9.1323
_cell_length_b                        7.8417
_cell_length_c                       10.1787
_cell_angle_alpha                   88.0541
_cell_angle_beta                   106.8217
_cell_angle_gamma                   92.0270

loop_
_atom_site_label
_atom_site_type_symbol
_atom_site_fract_x
_atom_site_fract_y
_atom_site_fract_z
_atom_site_charge
  Ge     Ge        0.313819999999964    0.296860000000038    0.309830000000034  0.0000
  Ge     Ge        0.698046874352332    0.353701905550654    0.713807399388430  0.0000
  Ge     Ge        0.640285501932320    0.754671085993904    0.702350224942502  0.0000
  Ge     Ge        0.328384888531299    0.279707406649231    0.629929670420095  0.0000
  Ge     Ge        0.681985196423761    0.372594247350589    0.392864361217877  0.0000
  Ge     Ge        0.275159030207002    0.684981637396243    0.612929058491198  0.0000
  Ge     Ge        0.868539296649487    0.055414183053461    0.378525989669938  0.0000
  Ge     Ge        0.087662937219867    0.991722501992815    0.685743913240086  0.0000
  Ge     Ge        0.080302712739455    0.999590126688137    0.176673770385098  0.0000
  Si     Si        0.279133472694279    0.690940305379229    0.301406389683540  0.0000
  Si     Si        0.633281718217674    0.761235987543927    0.388698380797035  0.0000
  Si     Si        0.876894590336079    0.038725411958308    0.873682686337746  0.0000
  O1     O1        0.253833456481931    0.263286684787261    0.454294013907961  0.0000
  O1     O1        0.755009523340611    0.376266883572890    0.568348504551559  0.0000
  O3     O3        0.697426672152762    0.763010750378990    0.553788261826555  0.0000
  O3     O3        0.219286103619383    0.675585631247354    0.435079414729402  0.0000
  O3     O3        0.284845812009010    0.505288563529427    0.245207802941618  0.0000
  O1     O1        0.681915155235442    0.553514036652213    0.773164131168276  0.0000
  O1     O1        0.506345976781823    0.268218488021216    0.353683275904250  0.0000
  O1     O1        0.521541179533520    0.252155928803908    0.674038140096825  0.0000
  O1     O1        0.449361268271938    0.790463437244712    0.668987364637203  0.0000
  O2     O2        0.449570903687519    0.779624165694521    0.351106654699307  0.0000
  O1     O1        0.210895092881431    0.164210230331661    0.184667313658627  0.0000
  O3     O3        0.831361886266522    0.233489510360174    0.832869030999129  0.0000
  O3     O3        0.733878956478123    0.914031420204660    0.808119700097963  0.0000
  O3     O3        0.171647261917924    0.808219042711777    0.184349561910082  0.0000
  O1     O1        0.293336699748606    0.479864784829861    0.676832553882264  0.0000
  O3     O3        0.667823007129877    0.581563903321648    0.332328804760302  0.0000
  O1     O1        0.244074558664207    0.126592975945971    0.709049084473198  0.0000
  O1     O1        0.798098697370695    0.255447611690486    0.327364234135739  0.0000
  O3     O3        0.714118926092485    0.910972811960357    0.324763230977676  0.0000
  O1     O1        0.138465713210871    0.788700868889402    0.660449481000081  0.0000
  O1     O1        0.935066416446862    0.056784838557832    0.554644889207956  0.0000
  O1     O1        0.016126728120203    0.005181060518544    0.319665127291597  0.0000
  O3     O3        0.026688365959347    0.988617499456929    0.832216741444935  0.0000
  O3     O3        0.921274594786720    0.017350635393542    0.038078373029847  0.0000
