data_c00022.vasp
_audit_creation_method             Generated by GULP
_audit_author_name                 Salvador R. G. Balestra
_symmetry_space_group_name_H-M     'P 1             '
_symmetry_Int_Tables_number        1

loop_
_symmetry_equiv_pos_site_id
_symmetry_equiv_pos_as_xyz
_cell_length_a                        9.0853
_cell_length_b                        7.7566
_cell_length_c                       10.0459
_cell_angle_alpha                   87.6857
_cell_angle_beta                   105.1943
_cell_angle_gamma                   91.6915

loop_
_atom_site_label
_atom_site_type_symbol
_atom_site_fract_x
_atom_site_fract_y
_atom_site_fract_z
_atom_site_charge
  Ge     Ge        0.313819999999964    0.296860000000038    0.309830000000034  0.0000
  Ge     Ge        0.677823154162897    0.346020393642459    0.721894646232378  0.0000
  Ge     Ge        0.626343264723253    0.757518755667534    0.713272093582147  0.0000
  Ge     Ge        0.318643364899790    0.260558669015458    0.631534785925908  0.0000
  Ge     Ge        0.684489420272350    0.360968429907815    0.400389203700673  0.0000
  Ge     Ge        0.634364766284502    0.768433552481126    0.389590169682432  0.0000
  Ge     Ge        0.272625966613330    0.665191944677580    0.628927944167133  0.0000
  Ge     Ge        0.062547012496527    0.973585421810519    0.639584604860106  0.0000
  Ge     Ge        0.869375443244165    0.031926145392562    0.861940672113430  0.0000
  Si     Si        0.277922329982692    0.690552455556428    0.310685511236917  0.0000
  Si     Si        0.867712004380939    0.055003778230084    0.332167307123078  0.0000
  Si     Si        0.090889473317423    0.004311885560915    0.154108059775277  0.0000
  O1     O1        0.251379146237991    0.256266612164782    0.453979389226691  0.0000
  O1     O1        0.745336683887216    0.365998577774378    0.577046736072288  0.0000
  O1     O1        0.690703995280358    0.781702090590787    0.566013411591624  0.0000
  O3     O3        0.237065792717434    0.637514901601508    0.452078862135919  0.0000
  O3     O3        0.285629556737421    0.508067827474213    0.242040351225718  0.0000
  O1     O1        0.645019839069441    0.544281162042242    0.771362928534923  0.0000
  O1     O1        0.506898837285597    0.264922063188034    0.350081334661162  0.0000
  O1     O1        0.510630564981098    0.224008700077168    0.675082234889723  0.0000
  O1     O1        0.434267827201313    0.794271133836481    0.674516049454172  0.0000
  O3     O3        0.438768585884311    0.792870266856676    0.339096238689875  0.0000
  O3     O3        0.217420756107424    0.154072677711622    0.187085480962352  0.0000
  O1     O1        0.801602050971431    0.235880554220870    0.854947802282183  0.0000
  O1     O1        0.723867967685392    0.881503694315159    0.845905597581073  0.0000
  O2     O2        0.152614203805618    0.817648718502138    0.216148148368956  0.0000
  O1     O1        0.295116062535013    0.459435533956666    0.694950997925303  0.0000
  O1     O1        0.677552669464642    0.571512900379495    0.339600482072025  0.0000
  O1     O1        0.214317624724404    0.112407339726393    0.699358316389027  0.0000
  O3     O3        0.817647740237181    0.249167619134621    0.344437681383429  0.0000
  O3     O3        0.718425612366720    0.931896707803055    0.312575672580595  0.0000
  O1     O1        0.128228060471727    0.765359363803716    0.671540510246910  0.0000
  O3     O3        0.000371541032259    0.991723773975480    0.461049922840140  0.0000
  O2     O2        0.936974563734791    0.049719787304961    0.198828304774290  0.0000
  O1     O1        0.916420126669280    0.010294144604130    0.706907260852394  0.0000
  O3     O3        0.032247589128499    0.990265112713662    0.989750245293636  0.0000
