data_c00032.vasp
_audit_creation_method             Generated by GULP
_audit_author_name                 Salvador R. G. Balestra
_symmetry_space_group_name_H-M     'P 1             '
_symmetry_Int_Tables_number        1

loop_
_symmetry_equiv_pos_site_id
_symmetry_equiv_pos_as_xyz
_cell_length_a                        9.2305
_cell_length_b                        7.8878
_cell_length_c                       10.1633
_cell_angle_alpha                   88.1321
_cell_angle_beta                   106.3404
_cell_angle_gamma                   91.5781

loop_
_atom_site_label
_atom_site_type_symbol
_atom_site_fract_x
_atom_site_fract_y
_atom_site_fract_z
_atom_site_charge
  Ge     Ge        0.313819999999964    0.296860000000038    0.309830000000034  0.0000
  Ge     Ge        0.688505949894945    0.330006029398560    0.721775492680250  0.0000
  Ge     Ge        0.641309393106108    0.732916410703701    0.709283124262355  0.0000
  Ge     Ge        0.330530354801742    0.275858194606148    0.635948195774628  0.0000
  Ge     Ge        0.669728789902112    0.348563257522951    0.392848115514557  0.0000
  Ge     Ge        0.866947673507634    0.031699245938128    0.395064961060771  0.0000
  Ge     Ge        0.099719448984632    0.972076490921578    0.693306616013087  0.0000
  Ge     Ge        0.083324172356817    0.995165024598103    0.196482945894710  0.0000
  Ge     Ge        0.881482111854074    0.014029663836266    0.882456291645082  0.0000
  Si     Si        0.289172648936196    0.689289521671507    0.314946766553208  0.0000
  Si     Si        0.639313858946568    0.739624612373683    0.396218640821885  0.0000
  Si     Si        0.286919014520676    0.672655165014785    0.620868966981718  0.0000
  O1     O1        0.322773976845445    0.219234242479047    0.472432372931544  0.0000
  O1     O1        0.670373611460724    0.279868633525607    0.554884518262746  0.0000
  O3     O3        0.649157802611464    0.800060020495961    0.547675644191660  0.0000
  O2     O2        0.281146922418250    0.738980367754956    0.466348107417265  0.0000
  O3     O3        0.235358880264533    0.497180446841702    0.286785892905229  0.0000
  O1     O1        0.729608114442515    0.542642597027288    0.747952826812842  0.0000
  O1     O1        0.491189234331632    0.311870008476006    0.288407315874368  0.0000
  O1     O1        0.510946113859807    0.286436367066082    0.740875082265496  0.0000
  O3     O3        0.456485901197301    0.705980920581319    0.714867311490006  0.0000
  O2     O2        0.464152766388921    0.707450469468875    0.312366580569319  0.0000
  O1     O1        0.200986491825556    0.166406566104710    0.191782531453004  0.0000
  O1     O1        0.829604891746497    0.219456679032826    0.832497217570133  0.0000
  O1     O1        0.724592924647973    0.886398830585409    0.819986483122765  0.0000
  O3     O3        0.186762472690752    0.812463007658775    0.203006875389211  0.0000
  O3     O3        0.247436274415997    0.474033244641167    0.622609727361665  0.0000
  O3     O3        0.721128228737230    0.561611125001310    0.398689379456050  0.0000
  O1     O1        0.232094600131046    0.130471525747266    0.707092273947943  0.0000
  O1     O1        0.796855431137067    0.230175280028826    0.343628394192649  0.0000
  O3     O3        0.722478385949165    0.883819938667833    0.329325877801015  0.0000
  O3     O3        0.168378862932300    0.775668984078669    0.672320753125844  0.0000
  O1     O1        0.933846920230665    0.014713130676191    0.570411489942880  0.0000
  O1     O1        0.022387568629429    0.002653332995566    0.340791464611036  0.0000
  O1     O1        0.039795325740065    0.958090043521571    0.839330043338144  0.0000
  O1     O1        0.928282147223251    0.997194914216704    0.058728928712373  0.0000
