data_c00005.vasp
_audit_creation_method             Generated by GULP
_audit_author_name                 Salvador R. G. Balestra
_symmetry_space_group_name_H-M     'P 1             '
_symmetry_Int_Tables_number        1

loop_
_symmetry_equiv_pos_site_id
_symmetry_equiv_pos_as_xyz
_cell_length_a                        9.0535
_cell_length_b                        7.7918
_cell_length_c                       10.2156
_cell_angle_alpha                   89.8913
_cell_angle_beta                   105.8518
_cell_angle_gamma                   91.2165

loop_
_atom_site_label
_atom_site_type_symbol
_atom_site_fract_x
_atom_site_fract_y
_atom_site_fract_z
_atom_site_charge
  Ge     Ge        0.313819999999964    0.296860000000038    0.309830000000034  0.0000
  Ge     Ge        0.684790570681184    0.380534482297312    0.716628115807619  0.0000
  Ge     Ge        0.632007426625274    0.780219566267025    0.700515301051227  0.0000
  Ge     Ge        0.270354027505271    0.705024531329752    0.295267767902027  0.0000
  Ge     Ge        0.315406980770609    0.308976711669330    0.627943800114768  0.0000
  Ge     Ge        0.677102668930212    0.379617481167047    0.393974166812596  0.0000
  Ge     Ge        0.632672850515552    0.784168384958049    0.384805160735777  0.0000
  Ge     Ge        0.886200549357048    0.070868765236602    0.377455808452341  0.0000
  Ge     Ge        0.876173707211446    0.063584995681729    0.870244029422244  0.0000
  Si     Si        0.270084729140559    0.707159077573207    0.603995920427986  0.0000
  Si     Si        0.090043813460089    0.014515280605426    0.678939633664065  0.0000
  Si     Si        0.082996980453464    0.013784159066548    0.170758285882058  0.0000
  O1     O1        0.251669637294015    0.283976932709832    0.454839458210490  0.0000
  O1     O1        0.734786777886357    0.403893224657816    0.567829420827635  0.0000
  O1     O1        0.698960415424720    0.798759587911522    0.559346107375895  0.0000
  O3     O3        0.209877082336018    0.682153078069479    0.442044661222959  0.0000
  O1     O1        0.286810579352135    0.501621361468235    0.241980336754738  0.0000
  O1     O1        0.670121273327670    0.583510995817765    0.776071431253971  0.0000
  O1     O1        0.506923978418851    0.261131263535032    0.355289980247541  0.0000
  O1     O1        0.508499033631600    0.275728110390376    0.684001647496042  0.0000
  O3     O3        0.434943904497763    0.802819613345120    0.642453497019558  0.0000
  O1     O1        0.439504388587570    0.822114650461824    0.334364507078433  0.0000
  O3     O3        0.218612257885904    0.155102705509506    0.183037592636631  0.0000
  O1     O1        0.824558471510096    0.270664369537746    0.830882291333504  0.0000
  O1     O1        0.714358284362830    0.937549850806919    0.814308640236836  0.0000
  O3     O3        0.142809555945706    0.821451247285508    0.170937316231447  0.0000
  O3     O3        0.282294027353942    0.519384272840377    0.670958058283860  0.0000
  O1     O1        0.650183974649186    0.579899917352284    0.326217199646708  0.0000
  O3     O3        0.221352296920548    0.162377803067287    0.705023562756592  0.0000
  O1     O1        0.810293041559487    0.270857074596675    0.338597916247117  0.0000
  O1     O1        0.740021454247474    0.923179417130721    0.318092454035368  0.0000
  O2     O2        0.152280702384161    0.827996035572328    0.652488035136641  0.0000
  O3     O3        0.947916757290135    0.065003594784943    0.553800384443449  0.0000
  O3     O3        0.036996746240018    0.037294256741123    0.312179773424020  0.0000
  O3     O3        0.027276124220029    0.997973698607340    0.810719735759328  0.0000
  O3     O3        0.937962986263688    0.046875590615701    0.045844665923408  0.0000
