data_c00049.vasp
_audit_creation_method             Generated by GULP
_audit_author_name                 Salvador R. G. Balestra
_symmetry_space_group_name_H-M     'P 1             '
_symmetry_Int_Tables_number        1

loop_
_symmetry_equiv_pos_site_id
_symmetry_equiv_pos_as_xyz
_cell_length_a                        9.2157
_cell_length_b                        7.8323
_cell_length_c                       10.3128
_cell_angle_alpha                   91.3033
_cell_angle_beta                   107.0393
_cell_angle_gamma                   88.1665

loop_
_atom_site_label
_atom_site_type_symbol
_atom_site_fract_x
_atom_site_fract_y
_atom_site_fract_z
_atom_site_charge
  Ge     Ge        0.313819999999964    0.296860000000038    0.309830000000034  0.0000
  Ge     Ge        0.679151081784092    0.245532571515104    0.707078181564320  0.0000
  Ge     Ge        0.315161130748052    0.311053854351455    0.624029105153838  0.0000
  Ge     Ge        0.710565921746391    0.626953826595336    0.400856578669606  0.0000
  Ge     Ge        0.371786851599524    0.713826873944029    0.629180435561750  0.0000
  Ge     Ge        0.908217110187830    0.941827545943746    0.393081136281086  0.0000
  Ge     Ge        0.133780259212333    0.002919670719445    0.694227579107373  0.0000
  Ge     Ge        0.116620630980068    0.979328499898114    0.189794137796164  0.0000
  Ge     Ge        0.916429526655649    0.947304628417986    0.878370684500848  0.0000
  Si     Si        0.725492054154366    0.642551259430918    0.711425754541900  0.0000
  Si     Si        0.354746160893767    0.691701109389928    0.316463221000972  0.0000
  Si     Si        0.672652053455199    0.232671867453401    0.399387821887184  0.0000
  O1     O1        0.250035791496861    0.304678328962171    0.449737161088138  0.0000
  O3     O3        0.738318861487522    0.223342650330919    0.562799282416397  0.0000
  O3     O3        0.776960484265796    0.625184773463346    0.575990170045472  0.0000
  O3     O3        0.303548871293059    0.710571259876339    0.453330909267293  0.0000
  O3     O3        0.324386021456657    0.500573053872817    0.254863751539078  0.0000
  O3     O3        0.706390087510854    0.456163173520963    0.764489541878944  0.0000
  O3     O3        0.494232045266374    0.202093555732496    0.359428103644858  0.0000
  O1     O1        0.490536724286338    0.208148418468754    0.674273549207132  0.0000
  O3     O3        0.564733755008763    0.745824920163845    0.676849732253506  0.0000
  O3     O3        0.532800199019491    0.725812590884290    0.352958410623167  0.0000
  O1     O1        0.198135677184227    0.173402549359962    0.186416443788181  0.0000
  O1     O1        0.783965600591198    0.108954062298274    0.826288088732369  0.0000
  O3     O3        0.849002078009271    0.747430786859059    0.823180315166631  0.0000
  O3     O3        0.257910569207677    0.822227044088356    0.206148705989846  0.0000
  O1     O1        0.331797111081888    0.518954537938551    0.681363905680905  0.0000
  O3     O3        0.700696369275478    0.417631400125560    0.345619757618777  0.0000
  O1     O1        0.185718115695266    0.209359000129745    0.682283480358524  0.0000
  O3     O3        0.761524558261736    0.092239912904504    0.335809680623053  0.0000
  O1     O1        0.830713427354937    0.743960997924934    0.343482992438312  0.0000
  O1     O1        0.289844186461124    0.874902269725068    0.697362545183015  0.0000
  O1     O1        0.976602242320872    0.944686890856751    0.566826477697292  0.0000
  O1     O1        0.055869236560441    0.979860187178401    0.332832736134323  0.0000
  O1     O1        0.081063450293231    0.985058270548360    0.839672671976674  0.0000
  O1     O1        0.965281923365042    0.944441374456773    0.053038051678822  0.0000
