data_c00045.vasp
_audit_creation_method             Generated by GULP
_audit_author_name                 Salvador R. G. Balestra
_symmetry_space_group_name_H-M     'P 1             '
_symmetry_Int_Tables_number        1

loop_
_symmetry_equiv_pos_site_id
_symmetry_equiv_pos_as_xyz
_cell_length_a                        9.1260
_cell_length_b                        7.7845
_cell_length_c                       10.4296
_cell_angle_alpha                   90.3977
_cell_angle_beta                   107.1221
_cell_angle_gamma                   87.4385

loop_
_atom_site_label
_atom_site_type_symbol
_atom_site_fract_x
_atom_site_fract_y
_atom_site_fract_z
_atom_site_charge
  Ge     Ge        0.313819999999964    0.296860000000038    0.309830000000034  0.0000
  Ge     Ge        0.684253544275495    0.204584670366964    0.698787860368316  0.0000
  Ge     Ge        0.744328050107949    0.609128792549932    0.719015849187255  0.0000
  Ge     Ge        0.729069803635984    0.607923930532764    0.405966147210668  0.0000
  Ge     Ge        0.377811130525385    0.688981574450087    0.629962936277888  0.0000
  Ge     Ge        0.905721047565142    0.923885914940845    0.331472502777501  0.0000
  Ge     Ge        0.130707816264571    0.989118773663213    0.632073029555925  0.0000
  Ge     Ge        0.129256610782951    0.978987175752994    0.151950427753406  0.0000
  Ge     Ge        0.936474244917359    0.922485442798559    0.843424338352381  0.0000
  Si     Si        0.366007162616449    0.689704831445948    0.324422495724368  0.0000
  Si     Si        0.328134966388420    0.292502780506659    0.616550426626096  0.0000
  Si     Si        0.673704219952490    0.211878623438577    0.390896643362013  0.0000
  O3     O3        0.261593332615305    0.308280907316467    0.455533372175301  0.0000
  O3     O3        0.738024812448648    0.194112161990748    0.551916248419585  0.0000
  O1     O1        0.803611550551658    0.610315404951779    0.576675247830365  0.0000
  O3     O3        0.309301533750091    0.705457156067462    0.456286177039454  0.0000
  O3     O3        0.323271737223992    0.504554466447555    0.256196118740684  0.0000
  O1     O1        0.727665258257311    0.405099931240942    0.767183397770480  0.0000
  O3     O3        0.491851744396682    0.192121042805410    0.342129456532968  0.0000
  O3     O3        0.488578854776840    0.180873862168726    0.652410980275847  0.0000
  O1     O1        0.569338131518394    0.722484261799020    0.684153567037064  0.0000
  O3     O3        0.547959574067205    0.707670602278653    0.367723519123598  0.0000
  O1     O1        0.181305922763636    0.186187053572016    0.193714219994634  0.0000
  O1     O1        0.775501531055932    0.059063755940823    0.818857297783481  0.0000
  O1     O1        0.877708343920280    0.716430432904132    0.840433874063210  0.0000
  O3     O3        0.283168263819404    0.838875934948381    0.221137274307677  0.0000
  O3     O3        0.354671668577153    0.480345556415524    0.679132755276893  0.0000
  O3     O3        0.713366072117747    0.399243889796020    0.348187592757528  0.0000
  O3     O3        0.210341305354775    0.189122368792010    0.670249902254378  0.0000
  O3     O3        0.752188047723106    0.066504987944228    0.321421869643416  0.0000
  O1     O1        0.845988058613190    0.718725460566789    0.339152401989824  0.0000
  O1     O1        0.271273744652813    0.829427949309202    0.694510028433690  0.0000
  O1     O1        0.063034749056821    0.971150380742805    0.460555900793907  0.0000
  O1     O1        0.964519671631051    0.934531487057495    0.189570863758667  0.0000
  O1     O1        0.986025626575060    0.968390585848226    0.699845188833538  0.0000
  O1     O1        0.085208160162049    0.962598054233709    0.980081772999025  0.0000
