data_c00056.vasp
_audit_creation_method             Generated by GULP
_audit_author_name                 Salvador R. G. Balestra
_symmetry_space_group_name_H-M     'P 1             '
_symmetry_Int_Tables_number        1

loop_
_symmetry_equiv_pos_site_id
_symmetry_equiv_pos_as_xyz
_cell_length_a                        9.1455
_cell_length_b                        7.7582
_cell_length_c                       10.3393
_cell_angle_alpha                   91.7755
_cell_angle_beta                   106.8605
_cell_angle_gamma                   88.1418

loop_
_atom_site_label
_atom_site_type_symbol
_atom_site_fract_x
_atom_site_fract_y
_atom_site_fract_z
_atom_site_charge
  Ge     Ge        0.313819999999964    0.296860000000038    0.309830000000034  0.0000
  Ge     Ge        0.373355107017208    0.699699355587181    0.313247205485747  0.0000
  Ge     Ge        0.325661508101560    0.314345517066058    0.631433037024205  0.0000
  Ge     Ge        0.672372936625127    0.205693171471100    0.399078325343883  0.0000
  Ge     Ge        0.735367531996024    0.614750568181603    0.411322145472571  0.0000
  Ge     Ge        0.365044829472113    0.712339197491945    0.624474942232613  0.0000
  Ge     Ge        0.922769116096324    0.919705620374194    0.344561588627363  0.0000
  Ge     Ge        0.124468920710794    0.980175293715274    0.143514204299683  0.0000
  Ge     Ge        0.919570085930793    0.952786556132109    0.828909954109765  0.0000
  Si     Si        0.680497586417619    0.241123240236202    0.709639159935842  0.0000
  Si     Si        0.724563252728223    0.636316696660375    0.712313804071805  0.0000
  Si     Si        0.130821627181795    0.004488330143950    0.638094381107571  0.0000
  O1     O1        0.273824323381866    0.338182650675343    0.459964734201164  0.0000
  O3     O3        0.730390889315599    0.203747260630790    0.574410553406615  0.0000
  O3     O3        0.792554229365947    0.617614732270973    0.586534876215757  0.0000
  O1     O1        0.303777011748222    0.723754253677475    0.451406019370558  0.0000
  O1     O1        0.341025430569663    0.492197533902318    0.248900209548602  0.0000
  O2     O2        0.703147651117202    0.443121661223002    0.758743049788404  0.0000
  O1     O1        0.480172910899581    0.173092947134801    0.342178287949774  0.0000
  O3     O3        0.502004561928095    0.206574906059247    0.681260459594127  0.0000
  O3     O3        0.560852955834603    0.734914934174296    0.667184249887759  0.0000
  O1     O1        0.566288441299846    0.730924058694077    0.357343994626333  0.0000
  O1     O1        0.169669731416903    0.188024026998967    0.198921888508015  0.0000
  O3     O3        0.783614406796878    0.117156597463851    0.822568808703312  0.0000
  O3     O3        0.836482048767854    0.753759786994153    0.826612533915005  0.0000
  O1     O1        0.280504422034498    0.844741454065395    0.194701820308907  0.0000
  O1     O1        0.330039249905541    0.522103203132773    0.690690424294909  0.0000
  O1     O1        0.711073747337020    0.406835433196071    0.351945874127200  0.0000
  O3     O3        0.195407380337999    0.195222456044998    0.680796822723378  0.0000
  O1     O1        0.764927793311535    0.051198386072321    0.330976342952409  0.0000
  O1     O1        0.876907044536411    0.711406527037534    0.365348282187623  0.0000
  O3     O3        0.272112576309499    0.870840353493537    0.692947213894032  0.0000
  O3     O3        0.075631829148840    0.992340236972365    0.474668281608978  0.0000
  O1     O1        0.974996854953107    0.917796747523116    0.198641909045094  0.0000
  O3     O3        0.988182615333862    0.964233793534512    0.689552947495518  0.0000
  O1     O1        0.067854518912632    0.976173909616582    0.969596472826599  0.0000
