data_c00013.vasp
_audit_creation_method             Generated by GULP
_audit_author_name                 Salvador R. G. Balestra
_symmetry_space_group_name_H-M     'P 1             '
_symmetry_Int_Tables_number        1

loop_
_symmetry_equiv_pos_site_id
_symmetry_equiv_pos_as_xyz
_cell_length_a                        9.0881
_cell_length_b                        7.7487
_cell_length_c                       10.3696
_cell_angle_alpha                   89.1448
_cell_angle_beta                   106.7992
_cell_angle_gamma                   92.0683

loop_
_atom_site_label
_atom_site_type_symbol
_atom_site_fract_x
_atom_site_fract_y
_atom_site_fract_z
_atom_site_charge
  Ge     Ge        0.313819999999964    0.296860000000038    0.309830000000034  0.0000
  Ge     Ge        0.685320770519791    0.372521813748076    0.706419532902072  0.0000
  Ge     Ge        0.631668247872684    0.784987417527619    0.691364798819981  0.0000
  Ge     Ge        0.257826676625602    0.696550604968508    0.294326271236231  0.0000
  Ge     Ge        0.321183938152364    0.286701941371420    0.623149993600981  0.0000
  Ge     Ge        0.269612237474824    0.691885305643187    0.612772488299694  0.0000
  Ge     Ge        0.847148620788338    0.069124959343088    0.327065611757557  0.0000
  Ge     Ge        0.066004165528029    0.999801211630381    0.631269005914983  0.0000
  Ge     Ge        0.065346388099758    0.013213623764904    0.136382262089754  0.0000
  Si     Si        0.674339861045137    0.379676940926860    0.402279389523863  0.0000
  Si     Si        0.618159574438500    0.776612890406511    0.382904622593299  0.0000
  Si     Si        0.870988752898857    0.063211559422516    0.833691727671913  0.0000
  O1     O1        0.250199596367750    0.276747863548806    0.450001369909160  0.0000
  O3     O3        0.747416524323729    0.382800400735434    0.562781219854162  0.0000
  O3     O3        0.684602633117211    0.805540550839617    0.543078365583275  0.0000
  O1     O1        0.207273706683543    0.674527582297173    0.440255683884460  0.0000
  O1     O1        0.270163658016688    0.494794186929232    0.234727316810462  0.0000
  O1     O1        0.668281845533594    0.577491954707502    0.754325621749844  0.0000
  O3     O3        0.511047608398506    0.277184589762257    0.364886624286962  0.0000
  O1     O1        0.514954004552012    0.254298363015559    0.670067659889860  0.0000
  O1     O1        0.439169658925953    0.815472334253474    0.653847775563353  0.0000
  O3     O3        0.436814006977882    0.804564195527897    0.333453562833959  0.0000
  O1     O1        0.228130258212775    0.140109583676344    0.197352344037602  0.0000
  O3     O3        0.815348877731397    0.257884881514467    0.830998549772592  0.0000
  O3     O3        0.729629722479681    0.925102410556838    0.817188427455396  0.0000
  O1     O1        0.118573969535102    0.805756351323538    0.179603950645216  0.0000
  O1     O1        0.301142317524573    0.490770331202204    0.679958499455212  0.0000
  O2     O2        0.647973586556252    0.577720660114464    0.349291218399114  0.0000
  O1     O1        0.218672045251210    0.143567963330695    0.691632334264417  0.0000
  O3     O3        0.785231938980923    0.276770929105900    0.338383604193851  0.0000
  O3     O3        0.702853916911518    0.910499243486080    0.307650990857025  0.0000
  O1     O1        0.135922867956023    0.796138679031653    0.666616746384048  0.0000
  O1     O1        0.002190830248048    0.022225692217196    0.458676577807173  0.0000
  O1     O1        0.910983517223565    0.072540735267746    0.186413071503607  0.0000
  O3     O3        0.918244228089893    0.033660618810143    0.696790970916893  0.0000
  O3     O3        0.011827612621720    0.027982387117083    0.961637554477024  0.0000
