data_c00047.vasp
_audit_creation_method             Generated by GULP
_audit_author_name                 Salvador R. G. Balestra
_symmetry_space_group_name_H-M     'P 1             '
_symmetry_Int_Tables_number        1

loop_
_symmetry_equiv_pos_site_id
_symmetry_equiv_pos_as_xyz
_cell_length_a                        9.2417
_cell_length_b                        7.7573
_cell_length_c                       10.1756
_cell_angle_alpha                   86.1922
_cell_angle_beta                   107.3702
_cell_angle_gamma                   91.6905

loop_
_atom_site_label
_atom_site_type_symbol
_atom_site_fract_x
_atom_site_fract_y
_atom_site_fract_z
_atom_site_charge
  Ge     Ge        0.313819999999964    0.296860000000038    0.309830000000034  0.0000
  Ge     Ge        0.685199423179021    0.316506127939695    0.716946766744219  0.0000
  Ge     Ge        0.319071710663786    0.249702434589177    0.627353822387926  0.0000
  Ge     Ge        0.682397501510487    0.369130347332073    0.400343566288873  0.0000
  Ge     Ge        0.620752594065438    0.776069967656764    0.398602622760673  0.0000
  Ge     Ge        0.294993780819273    0.646856273161260    0.642730922156454  0.0000
  Ge     Ge        0.864491275997033    0.065885712009569    0.335516012583510  0.0000
  Ge     Ge        0.084285799254565    0.998708289686698    0.158968700131212  0.0000
  Ge     Ge        0.890092736760276    0.990323926571995    0.842598580377690  0.0000
  Si     Si        0.636016909685517    0.720602732790089    0.723633227251750  0.0000
  Si     Si        0.280663465383038    0.685076003340912    0.319988448695643  0.0000
  Si     Si        0.084917815002839    0.958165771778607    0.632880815745889  0.0000
  O1     O1        0.250862549005631    0.245163053875348    0.450324006393282  0.0000
  O1     O1        0.750655817976768    0.339341576098060    0.576696672219871  0.0000
  O3     O3        0.663090154621972    0.769152214233478    0.576032116751974  0.0000
  O3     O3        0.302746473712301    0.613224115865489    0.477566884737626  0.0000
  O3     O3        0.272981272054772    0.509490799636847    0.242930425979545  0.0000
  O3     O3        0.663351548874719    0.518222455011527    0.769255198299274  0.0000
  O1     O1        0.505562381232755    0.272914573533574    0.349462277270413  0.0000
  O1     O1        0.510149080013557    0.215623400835142    0.673371110638354  0.0000
  O3     O3        0.463074837139098    0.754997936391895    0.717987920448017  0.0000
  O3     O3        0.427782839580866    0.801963122819600    0.320041032431292  0.0000
  O1     O1        0.217721108854035    0.159369057073092    0.186948573512700  0.0000
  O1     O1        0.811785046476602    0.189261588078012    0.839345918564854  0.0000
  O3     O3        0.749514805658304    0.834396678431929    0.835028288506439  0.0000
  O3     O3        0.137471533340774    0.804490869885301    0.255462610576886  0.0000
  O1     O1        0.284395528856330    0.435500334919872    0.697836066796165  0.0000
  O1     O1        0.672978355086894    0.584745485978458    0.351564347301956  0.0000
  O3     O3        0.224841205967711    0.085642809011435    0.694414856890934  0.0000
  O1     O1        0.811810172471590    0.275297694979551    0.338347188617730  0.0000
  O1     O1        0.706248840510518    0.945337645551228    0.337290402887200  0.0000
  O3     O3        0.145780758709261    0.761047921242232    0.657648475354594  0.0000
  O3     O3        0.020158383967201    0.997651628933308    0.469082170137060  0.0000
  O1     O1        0.919546064235871    0.054141789461359    0.190358744700827  0.0000
  O3     O3        0.950171794114832    0.976461548382259    0.697696277099037  0.0000
  O1     O1        0.038008725245692    0.956416580547191    0.987175325519210  0.0000
