data_c00035.vasp
_audit_creation_method             Generated by GULP
_audit_author_name                 Salvador R. G. Balestra
_symmetry_space_group_name_H-M     'P 1             '
_symmetry_Int_Tables_number        1

loop_
_symmetry_equiv_pos_site_id
_symmetry_equiv_pos_as_xyz
_cell_length_a                        9.2765
_cell_length_b                        7.7265
_cell_length_c                       10.1149
_cell_angle_alpha                   85.2384
_cell_angle_beta                   105.9462
_cell_angle_gamma                   91.3411

loop_
_atom_site_label
_atom_site_type_symbol
_atom_site_fract_x
_atom_site_fract_y
_atom_site_fract_z
_atom_site_charge
  Ge     Ge        0.313819999999964    0.296860000000038    0.309830000000034  0.0000
  Ge     Ge        0.661684447936436    0.326914791190470    0.717617931828962  0.0000
  Ge     Ge        0.628597071100518    0.727863218538019    0.725009679210913  0.0000
  Ge     Ge        0.321813382360562    0.234875841460802    0.641010010053338  0.0000
  Ge     Ge        0.618927132013819    0.763652428954247    0.401683420578009  0.0000
  Ge     Ge        0.270402087552174    0.651828084192719    0.632982562609371  0.0000
  Ge     Ge        0.860536835687389    0.058778580191130    0.406374312651464  0.0000
  Ge     Ge        0.065362219367043    0.023412623430305    0.190015401739775  0.0000
  Ge     Ge        0.871060359058488    0.007930391160741    0.873854798821151  0.0000
  Si     Si        0.266738854102663    0.699770599307977    0.317380773426853  0.0000
  Si     Si        0.647477912681243    0.375347694829434    0.394794886507967  0.0000
  Si     Si        0.083335720505264    0.944688579474893    0.699741000220923  0.0000
  O1     O1        0.281912870429065    0.229352220920273    0.465531920192721  0.0000
  O3     O3        0.619512002334463    0.404390719164053    0.544187708363334  0.0000
  O1     O1        0.682737929006449    0.778094423928646    0.576776570287563  0.0000
  O3     O3        0.212567683113115    0.667982419471739    0.455013276558933  0.0000
  O3     O3        0.280646834632191    0.516018878057844    0.260953581629436  0.0000
  O1     O1        0.670006214983785    0.517223461597605    0.794001417188300  0.0000
  O3     O3        0.501576628001273    0.271422367312430    0.314810744864768  0.0000
  O1     O1        0.508083912596382    0.199280936189999    0.722539700816152  0.0000
  O1     O1        0.438255491296705    0.755725095668703    0.690489488287399  0.0000
  O3     O3        0.427399153097645    0.798189898440141    0.353720277619051  0.0000
  O1     O1        0.201967937773748    0.177878392027609    0.187662559228377  0.0000
  O1     O1        0.818124220902659    0.206284103113554    0.782536167472820  0.0000
  O1     O1        0.727352812656850    0.862505148211296    0.844473102321228  0.0000
  O3     O3        0.145406831139419    0.819468023385031    0.207430578279599  0.0000
  O1     O1        0.282436613303113    0.436085081970380    0.685774576787505  0.0000
  O3     O3        0.658165028329539    0.573561008590599    0.336577041673651  0.0000
  O3     O3        0.220596450287556    0.075054827720764    0.703072364852042  0.0000
  O3     O3        0.794154671808926    0.269906879887556    0.401297303900032  0.0000
  O1     O1        0.716812209084775    0.923793439295953    0.335154367582677  0.0000
  O3     O3        0.132731761006314    0.751302291556429    0.684446717389362  0.0000
  O3     O3        0.935034624898792    0.002802510962558    0.580350204270064  0.0000
  O1     O1        0.000563109734577    0.062616128881530    0.328982606180140  0.0000
  O3     O3        0.033414951106369    0.941263600895394    0.839985081611845  0.0000
  O1     O1        0.918328067550288    0.041996001530747    0.046422098351059  0.0000
