data_c00011.vasp
_audit_creation_method             Generated by GULP
_audit_author_name                 Salvador R. G. Balestra
_symmetry_space_group_name_H-M     'P 1             '
_symmetry_Int_Tables_number        1

loop_
_symmetry_equiv_pos_site_id
_symmetry_equiv_pos_as_xyz
_cell_length_a                        9.1595
_cell_length_b                        7.7273
_cell_length_c                       10.3550
_cell_angle_alpha                   89.0441
_cell_angle_beta                   107.1945
_cell_angle_gamma                   90.9788

loop_
_atom_site_label
_atom_site_type_symbol
_atom_site_fract_x
_atom_site_fract_y
_atom_site_fract_z
_atom_site_charge
  Ge     Ge        0.313819999999964    0.296860000000038    0.309830000000034  0.0000
  Ge     Ge        0.682614904751251    0.371969767267885    0.712405988780048  0.0000
  Ge     Ge        0.637792080572627    0.779706496331388    0.695120118155127  0.0000
  Ge     Ge        0.254438876686538    0.701773279975822    0.299889903284095  0.0000
  Ge     Ge        0.322271946031833    0.294497679664121    0.624784234423347  0.0000
  Ge     Ge        0.614007386794328    0.782390670218263    0.376252794766597  0.0000
  Ge     Ge        0.851294410517952    0.074000021130723    0.327039703974199  0.0000
  Ge     Ge        0.078598082453540    0.000204475876691    0.629983035074822  0.0000
  Ge     Ge        0.064385917852311    0.021151601335328    0.138115166032581  0.0000
  Si     Si        0.667371751121648    0.381011035072534    0.400675036279302  0.0000
  Si     Si        0.284692190332793    0.694168529315273    0.616044206146157  0.0000
  Si     Si        0.877825123740378    0.055349320260459    0.830071508270376  0.0000
  O1     O1        0.255825645963604    0.268443214467991    0.452519455202838  0.0000
  O3     O3        0.724684342260557    0.405364494831431    0.561418677045549  0.0000
  O1     O1        0.686649046702925    0.807040292608850    0.547953460634035  0.0000
  O3     O3        0.224978489521668    0.664442622167565    0.455325095726420  0.0000
  O1     O1        0.269427376741578    0.499519543410488    0.240218023360192  0.0000
  O1     O1        0.676464878790981    0.576902610464206    0.768441482743238  0.0000
  O3     O3        0.510200900405355    0.269393248166745    0.359972589239262  0.0000
  O1     O1        0.514872081480545    0.255402722441468    0.681350692658957  0.0000
  O3     O3        0.441549223880253    0.806598340043637    0.649964295949314  0.0000
  O1     O1        0.421401360546137    0.818990884911922    0.321967346790504  0.0000
  O1     O1        0.226275145823770    0.146212270610628    0.193168851130342  0.0000
  O3     O3        0.824014393532066    0.252884274620364    0.824469537252493  0.0000
  O3     O3        0.732679157675469    0.927430751405252    0.815106342256503  0.0000
  O1     O1        0.105233267214183    0.812319815385878    0.195612770028958  0.0000
  O3     O3        0.312035821679158    0.504198702724291    0.681242251750760  0.0000
  O3     O3        0.637879552218029    0.569809391376552    0.332412414892108  0.0000
  O1     O1        0.213123911826768    0.159778142493927    0.691273358209826  0.0000
  O3     O3        0.793918926399155    0.278247084188891    0.356330216234570  0.0000
  O1     O1        0.706966063263718    0.922521025471279    0.297408036292515  0.0000
  O3     O3        0.164740089928038    0.799269378924963    0.667667750451705  0.0000
  O1     O1        0.005695664827265    0.011075924390318    0.457515636038101  0.0000
  O1     O1        0.914990365724466    0.096444967956849    0.187191887111853  0.0000
  O3     O3        0.931113963564485    0.015556993438059    0.698380565629107  0.0000
  O3     O3        0.014064259651651    0.019034234728707    0.962983687807264  0.0000
