data_c00009.vasp
_audit_creation_method             Generated by GULP
_audit_author_name                 Salvador R. G. Balestra
_symmetry_space_group_name_H-M     'P 1             '
_symmetry_Int_Tables_number        1

loop_
_symmetry_equiv_pos_site_id
_symmetry_equiv_pos_as_xyz
_cell_length_a                        9.1132
_cell_length_b                        7.7976
_cell_length_c                       10.3075
_cell_angle_alpha                   90.3505
_cell_angle_beta                   107.3169
_cell_angle_gamma                   88.3281

loop_
_atom_site_label
_atom_site_type_symbol
_atom_site_fract_x
_atom_site_fract_y
_atom_site_fract_z
_atom_site_charge
  Ge     Ge        0.313819999999964    0.296860000000038    0.309830000000034  0.0000
  Ge     Ge        0.706902943643195    0.210656487151695    0.712078110145583  0.0000
  Ge     Ge        0.744488091098199    0.614621138923408    0.729540144272369  0.0000
  Ge     Ge        0.380943858900313    0.696643840837683    0.331664486304866  0.0000
  Ge     Ge        0.338432206748411    0.291791614237333    0.628589132117422  0.0000
  Ge     Ge        0.684098057328008    0.219425389789855    0.394704148413615  0.0000
  Ge     Ge        0.916309841084469    0.923448281117190    0.342834242559455  0.0000
  Ge     Ge        0.144169835295707    0.976630566321677    0.647447144086623  0.0000
  Ge     Ge        0.131125383376602    0.979244818907364    0.152341355598454  0.0000
  Si     Si        0.737796199393979    0.615383320460736    0.418787867020199  0.0000
  Si     Si        0.387280024572545    0.687769110405614    0.642161837505515  0.0000
  Si     Si        0.943149291624170    0.922338414376843    0.847332762039250  0.0000
  O1     O1        0.260307146597375    0.304447073102846    0.455750353013279  0.0000
  O1     O1        0.763219231188638    0.191545262135112    0.567143823761012  0.0000
  O3     O3        0.794611417855217    0.590686675657686    0.581005555121822  0.0000
  O3     O3        0.324927207071826    0.698482580742316    0.478483687587976  0.0000
  O1     O1        0.331106562918515    0.501432509787801    0.256224296353786  0.0000
  O1     O1        0.740464369622333    0.411372553804395    0.785909860063468  0.0000
  O1     O1        0.490429363991211    0.191211192402150    0.346664119769305  0.0000
  O1     O1        0.513107064998397    0.182730261496122    0.664219128384772  0.0000
  O3     O3        0.568172549735636    0.723638265189137    0.691515209530044  0.0000
  O3     O3        0.577137989365189    0.723534081943674    0.376230443936447  0.0000
  O1     O1        0.175714067069711    0.189326798618654    0.189699973901539  0.0000
  O3     O3        0.808057257882310    0.065029917061087    0.833774680144708  0.0000
  O3     O3        0.875056515963317    0.734519289161967    0.847908934800556  0.0000
  O1     O1        0.296017789500957    0.860526180343072    0.226861907429995  0.0000
  O3     O3        0.366352718668920    0.496913001427508    0.693182710603760  0.0000
  O3     O3        0.713642681440835    0.428777131790926    0.350948688422474  0.0000
  O1     O1        0.221848625401601    0.174343908656661    0.694688266583548  0.0000
  O1     O1        0.770643068092978    0.075192663550231    0.313661425371040  0.0000
  O3     O3        0.861610951582516    0.719929053941794    0.372343099748661  0.0000
  O3     O3        0.291123605355682    0.822511228838721    0.703166189677475  0.0000
  O1     O1        0.072823695140057    0.979907225092808    0.473704673055310  0.0000
  O1     O1        0.978955523305929    0.912099444515062    0.201225587059598  0.0000
  O3     O3        0.996143561376873    0.936821143833355    0.711772125283424  0.0000
  O3     O3        0.085665974135831    0.952480822406116    0.977540562624355  0.0000
