data_c00050.vasp
_audit_creation_method             Generated by GULP
_audit_author_name                 Salvador R. G. Balestra
_symmetry_space_group_name_H-M     'P 1             '
_symmetry_Int_Tables_number        1

loop_
_symmetry_equiv_pos_site_id
_symmetry_equiv_pos_as_xyz
_cell_length_a                        9.3870
_cell_length_b                        7.7300
_cell_length_c                       10.1674
_cell_angle_alpha                   82.5881
_cell_angle_beta                   109.7520
_cell_angle_gamma                   91.5119

loop_
_atom_site_label
_atom_site_type_symbol
_atom_site_fract_x
_atom_site_fract_y
_atom_site_fract_z
_atom_site_charge
  Ge     Ge        0.313819999999964    0.296860000000038    0.309830000000034  0.0000
  Ge     Ge        0.668166775620520    0.692095192316832    0.729330183806911  0.0000
  Ge     Ge        0.350070486284245    0.224250337813202    0.638356414073597  0.0000
  Ge     Ge        0.676752607495214    0.363123736318359    0.392408280859119  0.0000
  Ge     Ge        0.621689888390493    0.773208434555059    0.387857766926078  0.0000
  Ge     Ge        0.324599862944633    0.618616897944900    0.657830735359834  0.0000
  Ge     Ge        0.861141274117835    0.065738350064196    0.329459003674102  0.0000
  Ge     Ge        0.107005728833107    0.933859719026050    0.644372720969135  0.0000
  Ge     Ge        0.080908611042787    0.007892026769726    0.163795076006213  0.0000
  Si     Si        0.704446009997440    0.288775646703035    0.713474985981619  0.0000
  Si     Si        0.287696553309639    0.686184746895593    0.327559875526017  0.0000
  Si     Si        0.911408376679994    0.962728281361281    0.849744939759969  0.0000
  O1     O1        0.267746363625487    0.230302719869731    0.458036913361382  0.0000
  O3     O3        0.749836592438554    0.333956963599801    0.575143451021332  0.0000
  O1     O1        0.683188309341520    0.765287762476350    0.568201680771873  0.0000
  O3     O3        0.337649557245257    0.602160214408704    0.491434335676341  0.0000
  O3     O3        0.267178966135719    0.516956801431096    0.247027303563849  0.0000
  O3     O3        0.698762237674507    0.467212244918276    0.775797745726563  0.0000
  O1     O1        0.502750720347961    0.267670427896157    0.338181787251600  0.0000
  O3     O3        0.542170413733201    0.195751678599877    0.673807260056121  0.0000
  O1     O1        0.490101174679786    0.721543907345472    0.736628423947038  0.0000
  O3     O3        0.427294249306125    0.805019266044510    0.313611692273027  0.0000
  O1     O1        0.207759827102268    0.172475604316970    0.184946308450528  0.0000
  O2     O2        0.826793974595089    0.150955746557586    0.824361632716883  0.0000
  O3     O3        0.795580971296273    0.806096299140956    0.851606133339463  0.0000
  O3     O3        0.144650751002482    0.814163926403619    0.277875327149090  0.0000
  O1     O1        0.318882120706340    0.400612121767918    0.712562774293161  0.0000
  O1     O1        0.664106890308988    0.581973252471093    0.338891785482044  0.0000
  O1     O1        0.265991308643240    0.053292305987494    0.707472552638939  0.0000
  O1     O1        0.806224105276499    0.273723984395126    0.336050873249418  0.0000
  O1     O1        0.704845828019392    0.941724430667886    0.319030458137040  0.0000
  O1     O1        0.170470413542968    0.720402203350768    0.664566532788230  0.0000
  O1     O1        0.018971028784619    0.994208119851784    0.468374353030420  0.0000
  O1     O1        0.916499729694755    0.065753718051277    0.184975244996250  0.0000
  O3     O3        0.974398133271066    0.945733692790929    0.723678016573292  0.0000
  O3     O3        0.046046864578828    0.950993384825821    0.995992063260524  0.0000
