data_c00004.vasp
_audit_creation_method             Generated by GULP
_audit_author_name                 Salvador R. G. Balestra
_symmetry_space_group_name_H-M     'P 1             '
_symmetry_Int_Tables_number        1

loop_
_symmetry_equiv_pos_site_id
_symmetry_equiv_pos_as_xyz
_cell_length_a                        9.0374
_cell_length_b                        7.7962
_cell_length_c                       10.3802
_cell_angle_alpha                   91.1935
_cell_angle_beta                   106.9975
_cell_angle_gamma                   87.5455

loop_
_atom_site_label
_atom_site_type_symbol
_atom_site_fract_x
_atom_site_fract_y
_atom_site_fract_z
_atom_site_charge
  Ge     Ge        0.313819999999964    0.296860000000038    0.309830000000034  0.0000
  Ge     Ge        0.704729841550792    0.221788847097741    0.713523019617522  0.0000
  Ge     Ge        0.742041734155840    0.621136963126655    0.727970755793467  0.0000
  Ge     Ge        0.385536673434950    0.696045973183485    0.325548890496619  0.0000
  Ge     Ge        0.330452298761058    0.297043949473744    0.623098081826130  0.0000
  Ge     Ge        0.683754669707716    0.203077763492690    0.397219195551545  0.0000
  Ge     Ge        0.750457130181597    0.600941056569436    0.415721967589489  0.0000
  Ge     Ge        0.928213585864326    0.914079729131958    0.348553504768672  0.0000
  Ge     Ge        0.135028557400963    0.980146939766788    0.149004341709758  0.0000
  Si     Si        0.377836521250062    0.692898364731014    0.630816235860421  0.0000
  Si     Si        0.143185417356268    0.987921775216451    0.644959082359038  0.0000
  Si     Si        0.946072062612790    0.931468531488287    0.843117644000317  0.0000
  O1     O1        0.253686054782787    0.310326000027858    0.452357560492110  0.0000
  O1     O1        0.760801925611182    0.198487725576386    0.569753584124678  0.0000
  O1     O1        0.800729487898572    0.582519588700300    0.587502529018666  0.0000
  O3     O3        0.322545007138238    0.698411296736905    0.468823710694737  0.0000
  O1     O1        0.340991923349253    0.495430585913634    0.255357576170984  0.0000
  O1     O1        0.734572457692547    0.421585411148047    0.789478973905070  0.0000
  O1     O1        0.488012230014892    0.181654590259208    0.354128133284853  0.0000
  O1     O1        0.508961168238095    0.194104437437691    0.666621303315316  0.0000
  O3     O3        0.560282827283599    0.725317694750182    0.683155440978617  0.0000
  O1     O1        0.579833280839052    0.722893512374528    0.368159444913605  0.0000
  O1     O1        0.177761429880672    0.190163783354573    0.188200876444080  0.0000
  O3     O3        0.809526235697239    0.074447729274354    0.830529095718892  0.0000
  O3     O3        0.872515873023052    0.747197009002133    0.840458405091106  0.0000
  O1     O1        0.298209924564207    0.854441203608181    0.217154455120464  0.0000
  O3     O3        0.348548590601949    0.507261797859548    0.683128721762353  0.0000
  O1     O1        0.722071233830437    0.401202234791586    0.344453704842990  0.0000
  O3     O3        0.213558590279134    0.173447878290457    0.688430027068132  0.0000
  O1     O1        0.764299612486489    0.042683254581794    0.322864350006993  0.0000
  O1     O1        0.890720901071481    0.705215024979539    0.372246043793218  0.0000
  O2     O2        0.280331232492301    0.839787020148987    0.686452465954256  0.0000
  O3     O3        0.071656074287724    0.991381093879297    0.484150218789658  0.0000
  O1     O1        0.987986032166322    0.916198519436360    0.206926019827040  0.0000
  O2     O2        0.010419623758076    0.947429137582864    0.713134067634964  0.0000
  O3     O3        0.084885055835685    0.955999027212333    0.975853944442930  0.0000
