data_c00027.vasp
_audit_creation_method             Generated by GULP
_audit_author_name                 Salvador R. G. Balestra
_symmetry_space_group_name_H-M     'P 1             '
_symmetry_Int_Tables_number        1

loop_
_symmetry_equiv_pos_site_id
_symmetry_equiv_pos_as_xyz
_cell_length_a                        9.2623
_cell_length_b                        7.8157
_cell_length_c                       10.0701
_cell_angle_alpha                   84.0661
_cell_angle_beta                   107.6665
_cell_angle_gamma                   91.3237

loop_
_atom_site_label
_atom_site_type_symbol
_atom_site_fract_x
_atom_site_fract_y
_atom_site_fract_z
_atom_site_charge
  Ge     Ge        0.313819999999964    0.296860000000038    0.309830000000034  0.0000
  Ge     Ge        0.705403703286404    0.275207735359803    0.724198903429618  0.0000
  Ge     Ge        0.655590264076197    0.691200166997588    0.729830651079578  0.0000
  Ge     Ge        0.343636995281118    0.224846242923671    0.647533766041208  0.0000
  Ge     Ge        0.678838276618713    0.343425000462533    0.394999948724795  0.0000
  Ge     Ge        0.640342850224308    0.753291103301295    0.405419300370279  0.0000
  Ge     Ge        0.101583015871950    0.928419850269386    0.635146012621114  0.0000
  Ge     Ge        0.092736857220404    0.992581938803821    0.179859609260810  0.0000
  Ge     Ge        0.913002776799789    0.945982416930422    0.862687062047271  0.0000
  Si     Si        0.303299974832264    0.676990802559034    0.333448364567560  0.0000
  Si     Si        0.319874718190258    0.612942193416747    0.646242076863248  0.0000
  Si     Si        0.860389126022332    0.051457500250909    0.333528960477670  0.0000
  O1     O1        0.312267812356217    0.205855579490350    0.472047390065228  0.0000
  O1     O1        0.706181179673856    0.240109886341737    0.558870818454559  0.0000
  O1     O1        0.655088296375792    0.799392157997891    0.571269777642517  0.0000
  O2     O2        0.369999285201922    0.607145283024681    0.501798001251222  0.0000
  O3     O3        0.238378362951466    0.505930067653744    0.263361995115414  0.0000
  O1     O1        0.730232527529863    0.488657114309063    0.746929097626684  0.0000
  O1     O1        0.494080589089454    0.318007991675066    0.298190578552859  0.0000
  O1     O1        0.531953368508886    0.207153806980986    0.738274064760412  0.0000
  O3     O3        0.474479600673079    0.677177859668333    0.750752343540758  0.0000
  O3     O3        0.452522031854108    0.752098561403276    0.298938867476443  0.0000
  O1     O1        0.206261625270795    0.168886268831661    0.190294513061552  0.0000
  O1     O1        0.851147445062999    0.156011628046768    0.839188942424403  0.0000
  O1     O1        0.762843295971772    0.809968545568219    0.856711829578292  0.0000
  O3     O3        0.179565649143184    0.824131666604079    0.303589861136419  0.0000
  O3     O3        0.279316375996640    0.417808097039366    0.683066602878879  0.0000
  O1     O1        0.721492519082915    0.557855944331240    0.405527952871473  0.0000
  O1     O1        0.242926920373900    0.065462008596150    0.708333304585956  0.0000
  O3     O3        0.799347833944665    0.244185754938295    0.324129351746820  0.0000
  O3     O3        0.726621885580780    0.917690317839376    0.331524971330660  0.0000
  O3     O3        0.176692474537345    0.729749485094440    0.626447793392747  0.0000
  O3     O3        0.008222821786272    0.016113953976358    0.467866327645064  0.0000
  O3     O3        0.919507234816296    0.038081160935071    0.200710139018996  0.0000
  O1     O1        0.980342428381104    0.889607955322326    0.730838991525326  0.0000
  O1     O1        0.055323940122626    0.920800974187529    0.018076151020645  0.0000
