data_c00060.vasp
_audit_creation_method             Generated by GULP
_audit_author_name                 Salvador R. G. Balestra
_symmetry_space_group_name_H-M     'P 1             '
_symmetry_Int_Tables_number        1

loop_
_symmetry_equiv_pos_site_id
_symmetry_equiv_pos_as_xyz
_cell_length_a                        9.4372
_cell_length_b                        7.7266
_cell_length_c                       10.2201
_cell_angle_alpha                   83.8284
_cell_angle_beta                   109.4539
_cell_angle_gamma                   91.4449

loop_
_atom_site_label
_atom_site_type_symbol
_atom_site_fract_x
_atom_site_fract_y
_atom_site_fract_z
_atom_site_charge
  Ge     Ge        0.313819999999964    0.296860000000038    0.309830000000034  0.0000
  Ge     Ge        0.351179108858425    0.225590309773759    0.637916738798331  0.0000
  Ge     Ge        0.679802910972323    0.356172152095325    0.396713919112680  0.0000
  Ge     Ge        0.626132425920977    0.770477999082204    0.401683135232773  0.0000
  Ge     Ge        0.326178591020805    0.619720779059196    0.653248859044497  0.0000
  Ge     Ge        0.862908410084536    0.062472569614674    0.332026964383050  0.0000
  Ge     Ge        0.108676264776004    0.937857201574665    0.638550287683785  0.0000
  Ge     Ge        0.082324824117071    0.001277285589676    0.168162318522554  0.0000
  Ge     Ge        0.905049586381790    0.962016915292652    0.847066083872767  0.0000
  Si     Si        0.703408208452319    0.287518082730913    0.711035105975986  0.0000
  Si     Si        0.659636753092834    0.693741856403841    0.726662437650266  0.0000
  Si     Si        0.292149969655183    0.684599137465395    0.327684846629797  0.0000
  O1     O1        0.274117814557413    0.228812024584672    0.459100058622441  0.0000
  O3     O3        0.751812529727216    0.292752238615316    0.574919556070446  0.0000
  O3     O3        0.669246574291313    0.780314498650564    0.578980366743544  0.0000
  O3     O3        0.342629914241869    0.602136952434392    0.489616117497636  0.0000
  O3     O3        0.262976178810556    0.514059215987355    0.246324948849262  0.0000
  O2     O2        0.690852349985423    0.484845129440360    0.745421760385207  0.0000
  O1     O1        0.501206945379604    0.276848539713380    0.332583076452659  0.0000
  O3     O3        0.542156033930563    0.196488153716609    0.680893651255280  0.0000
  O3     O3        0.495570914465403    0.716581981143394    0.738407472245198  0.0000
  O3     O3        0.434880040890239    0.794479990839796    0.312839416472114  0.0000
  O1     O1        0.205321319713650    0.170026467655957    0.187317427165989  0.0000
  O3     O3        0.822425606535946    0.166266407907858    0.832209020013028  0.0000
  O3     O3        0.779266735932282    0.791971193901102    0.843851938107792  0.0000
  O3     O3        0.153542380678043    0.815159728339544    0.283916566122750  0.0000
  O1     O1        0.314400784609711    0.405044748354624    0.707740616777447  0.0000
  O1     O1        0.684211617401521    0.577410275409772    0.367541458581896  0.0000
  O1     O1        0.266600909448261    0.057164795779760    0.705842056470906  0.0000
  O1     O1        0.802788513309946    0.271154105870031    0.329844398677238  0.0000
  O1     O1        0.711956180577268    0.936919363346853    0.336594554167160  0.0000
  O1     O1        0.173943781966177    0.725607056489347    0.657152609364252  0.0000
  O1     O1        0.025889481159622    0.004260301339183    0.464983370931195  0.0000
  O1     O1        0.914802646521049    0.050959845450204    0.187150935239266  0.0000
  O1     O1        0.974969412261398    0.946132321184992    0.714471907492870  0.0000
  O1     O1        0.046105071574049    0.941174793806890    0.002752629909500  0.0000
