data_c00030.vasp
_audit_creation_method             Generated by GULP
_audit_author_name                 Salvador R. G. Balestra
_symmetry_space_group_name_H-M     'P 1             '
_symmetry_Int_Tables_number        1

loop_
_symmetry_equiv_pos_site_id
_symmetry_equiv_pos_as_xyz
_cell_length_a                        9.0883
_cell_length_b                        7.8491
_cell_length_c                       10.2232
_cell_angle_alpha                   88.3193
_cell_angle_beta                   105.2339
_cell_angle_gamma                   91.8785

loop_
_atom_site_label
_atom_site_type_symbol
_atom_site_fract_x
_atom_site_fract_y
_atom_site_fract_z
_atom_site_charge
  Ge     Ge        0.313819999999964    0.296860000000038    0.309830000000034  0.0000
  Ge     Ge        0.681258241749883    0.350414838222383    0.717194820881173  0.0000
  Ge     Ge        0.626687741312168    0.751305834872141    0.704630870264761  0.0000
  Ge     Ge        0.312708393773750    0.278854284281693    0.626462376244691  0.0000
  Ge     Ge        0.681380425977288    0.365880372799855    0.399363514095086  0.0000
  Ge     Ge        0.263072943303914    0.684398580488509    0.609399489167219  0.0000
  Ge     Ge        0.874077933665168    0.048715601807917    0.389752134303819  0.0000
  Ge     Ge        0.084182895605464    0.997500386243784    0.182837686629891  0.0000
  Ge     Ge        0.871553928612083    0.035643373807013    0.875401863050509  0.0000
  Si     Si        0.282137456123910    0.689389866660853    0.303695278098666  0.0000
  Si     Si        0.635862117168270    0.755630850661326    0.396767055481060  0.0000
  Si     Si        0.081718038700652    0.988202481076724    0.683264503128832  0.0000
  O1     O1        0.249429074519878    0.266544341134404    0.452957884585914  0.0000
  O1     O1        0.742563952373592    0.365798057067780    0.572741521384786  0.0000
  O3     O3        0.692168361511800    0.759432299015729    0.559620720380529  0.0000
  O3     O3        0.215183069002021    0.670087845680520    0.434368579843458  0.0000
  O3     O3        0.289258772842472    0.504773429804405    0.245601202771515  0.0000
  O1     O1        0.659835542988789    0.549501343264065    0.773462482968476  0.0000
  O1     O1        0.505445629392022    0.264408542645990    0.352568693348061  0.0000
  O1     O1        0.504747112808201    0.247957602953156    0.677769297521143  0.0000
  O1     O1        0.435351601008625    0.788064279411289    0.666859289278134  0.0000
  O2     O2        0.452419831702550    0.774865034893665    0.356570486323824  0.0000
  O1     O1        0.211651611647700    0.165043508851373    0.186797746777375  0.0000
  O1     O1        0.813368009865825    0.240420692067478    0.837703065998466  0.0000
  O1     O1        0.718421762530391    0.901694818276247    0.814951620340557  0.0000
  O3     O3        0.180434111142871    0.808966930330674    0.188938124099167  0.0000
  O1     O1        0.272736942469427    0.478784884165934    0.672510097857075  0.0000
  O3     O3        0.673495112681145    0.575653021409192    0.342091875912494  0.0000
  O3     O3        0.224240651191282    0.118905455787669    0.699129726569668  0.0000
  O1     O1        0.804551943002071    0.248246474320443    0.339802021191834  0.0000
  O3     O3        0.720506208360255    0.905611128546403    0.335722088647844  0.0000
  O3     O3        0.124859083385236    0.798270577900622    0.653133281730411  0.0000
  O3     O3        0.936903186616589    0.049439458247349    0.565485751126244  0.0000
  O1     O1        0.022096804830535    0.000646834236390    0.328366282013076  0.0000
  O3     O3        0.029715961958806    0.984074071538846    0.821634691820347  0.0000
  O1     O1        0.928701288684928    0.010738181024833    0.048994630468644  0.0000
