data_c00025.vasp
_audit_creation_method             Generated by GULP
_audit_author_name                 Salvador R. G. Balestra
_symmetry_space_group_name_H-M     'P 1             '
_symmetry_Int_Tables_number        1

loop_
_symmetry_equiv_pos_site_id
_symmetry_equiv_pos_as_xyz
_cell_length_a                        9.3741
_cell_length_b                        7.8229
_cell_length_c                       10.2559
_cell_angle_alpha                   85.0809
_cell_angle_beta                   109.9738
_cell_angle_gamma                   90.5712

loop_
_atom_site_label
_atom_site_type_symbol
_atom_site_fract_x
_atom_site_fract_y
_atom_site_fract_z
_atom_site_charge
  Ge     Ge        0.313819999999964    0.296860000000038    0.309830000000034  0.0000
  Ge     Ge        0.726990855305338    0.274880761943304    0.711059444002083  0.0000
  Ge     Ge        0.682829628032838    0.694645359068411    0.717945510651815  0.0000
  Ge     Ge        0.366494306255285    0.235571264193954    0.647232934019076  0.0000
  Ge     Ge        0.679026951596538    0.333247120763719    0.385117011971223  0.0000
  Ge     Ge        0.650976386994544    0.743089975751556    0.397218875699771  0.0000
  Ge     Ge        0.872582630815844    0.040450452573013    0.331179565073367  0.0000
  Ge     Ge        0.132009103335553    0.939857556884644    0.644783798000768  0.0000
  Ge     Ge        0.942797895085887    0.949643720272102    0.862000665320984  0.0000
  Si     Si        0.312531207252066    0.679299958379219    0.325655942713035  0.0000
  Si     Si        0.346122861438884    0.626411377306874    0.639040019752633  0.0000
  Si     Si        0.104260588064770    0.992627309645554    0.178068408535449  0.0000
  O1     O1        0.319067829985728    0.214413809529365    0.471410718735486  0.0000
  O1     O1        0.716754620665287    0.227091360899909    0.547777540003822  0.0000
  O1     O1        0.677770103037000    0.801188471149705    0.561407785247798  0.0000
  O2     O2        0.384427448854476    0.617430261520323    0.493659947148831  0.0000
  O3     O3        0.238693483196832    0.507527615999147    0.261042171871495  0.0000
  O1     O1        0.752006097481617    0.489873956305369    0.729242530000570  0.0000
  O1     O1        0.489004666313335    0.311639102613664    0.294775041890094  0.0000
  O1     O1        0.557925399698857    0.214522959806391    0.731075640385694  0.0000
  O3     O3        0.505755790241365    0.689004375842839    0.740456246701126  0.0000
  O3     O3        0.459921523095523    0.742144661022365    0.291489643262220  0.0000
  O3     O3        0.200932104294642    0.164066304275821    0.193055593781493  0.0000
  O1     O1        0.877670397256127    0.158627246005041    0.826806558947770  0.0000
  O1     O1        0.794771225552447    0.812447458321830    0.845577343042078  0.0000
  O2     O2        0.193994691332059    0.837803210794910    0.293639565651052  0.0000
  O3     O3        0.308590798568738    0.433732217090294    0.679567961338023  0.0000
  O1     O1        0.727472889215001    0.542909210297458    0.405505962991568  0.0000
  O1     O1        0.274033773905545    0.080099290141838    0.713146868846916  0.0000
  O1     O1        0.784078193753796    0.238024513529949    0.303712553731384  0.0000
  O1     O1        0.739515954319762    0.886300074922583    0.317536283548888  0.0000
  O3     O3        0.205058739052764    0.746674129437427    0.620188448227458  0.0000
  O1     O1        0.016752349729114    0.032962502412884    0.488115585107002  0.0000
  O3     O3        0.946140981067389    0.027096651059376    0.198854691089305  0.0000
  O1     O1        0.032022249717461    0.887180511493248    0.752296965906952  0.0000
  O3     O3        0.075383034090102    0.927904281501910    0.028178042969271  0.0000
