data_c00036.vasp
_audit_creation_method             Generated by GULP
_audit_author_name                 Salvador R. G. Balestra
_symmetry_space_group_name_H-M     'P 1             '
_symmetry_Int_Tables_number        1

loop_
_symmetry_equiv_pos_site_id
_symmetry_equiv_pos_as_xyz
_cell_length_a                        9.0586
_cell_length_b                        7.8123
_cell_length_c                       10.1581
_cell_angle_alpha                   89.6969
_cell_angle_beta                   104.9898
_cell_angle_gamma                   87.4872

loop_
_atom_site_label
_atom_site_type_symbol
_atom_site_fract_x
_atom_site_fract_y
_atom_site_fract_z
_atom_site_charge
  Ge     Ge        0.313819999999964    0.296860000000038    0.309830000000034  0.0000
  Ge     Ge        0.666209380882941    0.211054371160607    0.715409744331338  0.0000
  Ge     Ge        0.721169596701817    0.615737475289901    0.730277490431002  0.0000
  Ge     Ge        0.303987532605429    0.293387058750230    0.626539238751175  0.0000
  Ge     Ge        0.722720966428009    0.621115261071524    0.413955390402795  0.0000
  Ge     Ge        0.358223121953641    0.695040820319408    0.638386942470816  0.0000
  Ge     Ge        0.099522624440569    0.986460890308216    0.638514697630460  0.0000
  Ge     Ge        0.125777679849221    0.982923863348720    0.158536360042303  0.0000
  Ge     Ge        0.909765015088574    0.921812753317542    0.859724895680585  0.0000
  Si     Si        0.358407557376949    0.686680590099405    0.326782469784958  0.0000
  Si     Si        0.677306945656574    0.226024457388775    0.403903615491269  0.0000
  Si     Si        0.899922967840115    0.933382375645855    0.340061489614946  0.0000
  O1     O1        0.245902206913953    0.297313076395016    0.450831555611569  0.0000
  O3     O3        0.730522333992573    0.212235609177908    0.567592036658695  0.0000
  O1     O1        0.790831662332641    0.615561651705163    0.587095053359759  0.0000
  O3     O3        0.297608409101040    0.686976505646341    0.461554289435334  0.0000
  O3     O3        0.323848792490458    0.504763623638937    0.253533587823196  0.0000
  O1     O1        0.693930774244725    0.414929258110716    0.779858002330057  0.0000
  O3     O3        0.497369818194947    0.202524631154609    0.351867660488160  0.0000
  O1     O1        0.475693183201281    0.174890950218480    0.671613557584262  0.0000
  O1     O1        0.548356379285105    0.732731669569744    0.688230339523433  0.0000
  O3     O3        0.539286702065084    0.711532635597498    0.370543116405251  0.0000
  O1     O1        0.192762481803030    0.184039847017170    0.186924293205076  0.0000
  O1     O1        0.762403019421374    0.073982513687661    0.842591167850274  0.0000
  O1     O1        0.843360829622978    0.720205405423517    0.859588072162269  0.0000
  O3     O3        0.275286125930249    0.839177284592180    0.226182241990649  0.0000
  O1     O1        0.328551145119618    0.492083841636023    0.693441267827899  0.0000
  O3     O3        0.718965409440513    0.411628099073912    0.356870701100472  0.0000
  O1     O1        0.167245484942464    0.186769229640208    0.678272843266295  0.0000
  O2     O2        0.765497215333169    0.075548338437473    0.342257788196729  0.0000
  O3     O3        0.838100184645935    0.743932547677896    0.344588285160573  0.0000
  O1     O1        0.252136256282494    0.841582851839566    0.700185344689871  0.0000
  O3     O3        0.047701265207382    0.962548189785465    0.462550632245861  0.0000
  O3     O3        0.956423639406261    0.951343185747766    0.203544326890690  0.0000
  O1     O1        0.951532740377439    0.947694314019186    0.703313653447000  0.0000
  O1     O1        0.069648007590967    0.955554127014705    0.984985468817945  0.0000
