data_c00048.vasp
_audit_creation_method             Generated by GULP
_audit_author_name                 Salvador R. G. Balestra
_symmetry_space_group_name_H-M     'P 1             '
_symmetry_Int_Tables_number        1

loop_
_symmetry_equiv_pos_site_id
_symmetry_equiv_pos_as_xyz
_cell_length_a                        9.2505
_cell_length_b                        7.8600
_cell_length_c                       10.2330
_cell_angle_alpha                   88.8625
_cell_angle_beta                   107.1537
_cell_angle_gamma                   91.7021

loop_
_atom_site_label
_atom_site_type_symbol
_atom_site_fract_x
_atom_site_fract_y
_atom_site_fract_z
_atom_site_charge
  Ge     Ge        0.313819999999964    0.296860000000038    0.309830000000034  0.0000
  Ge     Ge        0.681918846318744    0.339971363997968    0.715946761530603  0.0000
  Ge     Ge        0.323936032754280    0.287155554378300    0.631976702140445  0.0000
  Ge     Ge        0.673107661319896    0.358850127885717    0.392824052658126  0.0000
  Ge     Ge        0.621894652159185    0.761682187500704    0.391334591085869  0.0000
  Ge     Ge        0.855604999910171    0.050450730524747    0.325260010088698  0.0000
  Ge     Ge        0.089576330652495    0.982532777252463    0.625848700118863  0.0000
  Ge     Ge        0.075219458778365    0.997210130470953    0.142990824351344  0.0000
  Ge     Ge        0.878701500513176    0.016578275923381    0.827485909780670  0.0000
  Si     Si        0.642339404832711    0.735269234059178    0.706341204982655  0.0000
  Si     Si        0.269985267520946    0.693438198048241    0.310715061306797  0.0000
  Si     Si        0.293667099256023    0.680189602655727    0.621109366401997  0.0000
  O1     O1        0.322048515407294    0.224766355313539    0.471224108878941  0.0000
  O1     O1        0.678139701891628    0.285893230478942    0.553454850898639  0.0000
  O3     O3        0.636405868749794    0.812420175688114    0.558071203277943  0.0000
  O2     O2        0.279951232881348    0.743580038104926    0.466341223263450  0.0000
  O3     O3        0.230416209341140    0.494839477658823    0.287751078322397  0.0000
  O3     O3        0.726029270270000    0.555822858036487    0.734144653149243  0.0000
  O1     O1        0.491069657936034    0.318761977571553    0.290814803083859  0.0000
  O1     O1        0.506241561847792    0.294899521267650    0.735370856751099  0.0000
  O2     O2        0.470259431410863    0.697270262109204    0.710631148796870  0.0000
  O3     O3        0.434940760245910    0.736752697002959    0.294105935784896  0.0000
  O1     O1        0.208617898917681    0.156950071978740    0.192487434836752  0.0000
  O1     O1        0.814107923897600    0.219495446027627    0.828711551723159  0.0000
  O3     O3        0.728746138159686    0.871046132436298    0.817509132081119  0.0000
  O3     O3        0.142651703194166    0.800103613971841    0.206546253890359  0.0000
  O3     O3        0.242678852876987    0.485381348318050    0.622986146770937  0.0000
  O1     O1        0.711921763437004    0.574135838916622    0.392292065448720  0.0000
  O1     O1        0.211962222684906    0.148916069221887    0.691393400751282  0.0000
  O1     O1        0.806497207511918    0.256657885224035    0.340971897112403  0.0000
  O1     O1        0.699863971049784    0.923468307620472    0.319483712016204  0.0000
  O3     O3        0.189091690081791    0.796510507969258    0.677830641836208  0.0000
  O1     O1        0.017149433838835    0.997353683813657    0.451222193368619  0.0000
  O1     O1        0.909862636606565    0.036662297547413    0.179244867162214  0.0000
  O1     O1        0.936190664825001    0.983220359433062    0.684976564662730  0.0000
  O1     O1        0.028019160268388    0.983622730429369    0.967892428620570  0.0000
