data_c00026.vasp
_audit_creation_method             Generated by GULP
_audit_author_name                 Salvador R. G. Balestra
_symmetry_space_group_name_H-M     'P 1             '
_symmetry_Int_Tables_number        1

loop_
_symmetry_equiv_pos_site_id
_symmetry_equiv_pos_as_xyz
_cell_length_a                        9.2907
_cell_length_b                        7.7947
_cell_length_c                       10.1822
_cell_angle_alpha                   88.1407
_cell_angle_beta                   109.5591
_cell_angle_gamma                   86.9689

loop_
_atom_site_label
_atom_site_type_symbol
_atom_site_fract_x
_atom_site_fract_y
_atom_site_fract_z
_atom_site_charge
  Ge     Ge        0.313819999999964    0.296860000000038    0.309830000000034  0.0000
  Ge     Ge        0.719687429061179    0.190232678877570    0.721758213874041  0.0000
  Ge     Ge        0.750473339314306    0.606714749929878    0.736302627032990  0.0000
  Ge     Ge        0.354398350106575    0.255413425775494    0.646616752221126  0.0000
  Ge     Ge        0.680236397012764    0.216310581240841    0.396825174542908  0.0000
  Ge     Ge        0.728033010337889    0.622917367817381    0.418750545658734  0.0000
  Ge     Ge        0.906421642694338    0.925723804080532    0.336970300428180  0.0000
  Ge     Ge        0.140915929410750    0.972035729979461    0.175617441272944  0.0000
  Ge     Ge        0.982374995205190    0.885541996879131    0.861209274191487  0.0000
  Si     Si        0.379775565405573    0.670093009332170    0.341882159291897  0.0000
  Si     Si        0.403594211428425    0.638281737910563    0.657609571234929  0.0000
  Si     Si        0.159204700909636    0.948902150812360    0.640423083524715  0.0000
  O1     O1        0.313078121771470    0.231942942006608    0.471917039027096  0.0000
  O1     O1        0.699297893440455    0.123066202938441    0.557672853230880  0.0000
  O1     O1        0.754035351727457    0.697862218888422    0.581038671677228  0.0000
  O2     O2        0.433539549788445    0.610634320052313    0.509124836451297  0.0000
  O3     O3        0.273975976141300    0.518434791410191    0.269965916919618  0.0000
  O1     O1        0.789395747264821    0.391003759462997    0.739921157138200  0.0000
  O1     O1        0.492218732516037    0.257432151804416    0.298476221549559  0.0000
  O1     O1        0.542299904260191    0.198949839973698    0.739976455282944  0.0000
  O3     O3        0.574596694100380    0.648821106515710    0.762647003453351  0.0000
  O3     O3        0.537867159118021    0.670954626811483    0.311426099900662  0.0000
  O1     O1        0.181886485968636    0.183995729253282    0.191199813459099  0.0000
  O1     O1        0.848612221261856    0.054002561243212    0.843587236822911  0.0000
  O1     O1        0.890890026139443    0.700626581664365    0.862330994071943  0.0000
  O3     O3        0.290525836222634    0.853808378544667    0.303679021195054  0.0000
  O3     O3        0.323535078075450    0.469261549551088    0.683768737113384  0.0000
  O1     O1        0.770348003753682    0.406192919858690    0.423342048409413  0.0000
  O3     O3        0.234032701993973    0.125263406434816    0.697179091301188  0.0000
  O1     O1        0.757247511298668    0.075538142587927    0.309692327983289  0.0000
  O1     O1        0.849688508264268    0.723578191353397    0.351906816037983  0.0000
  O2     O2        0.299389214204851    0.807838259830296    0.656125722540012  0.0000
  O3     O3        0.059104174238277    0.979195936316459    0.479176831405865  0.0000
  O1     O1        0.970322818529818    0.937644441484961    0.197704062039799  0.0000
  O3     O3        0.054293492862544    0.885859245882765    0.724722161691912  0.0000
  O1     O1        0.129278833150612    0.904405520286089    0.014138799615015  0.0000
