data_c00018.vasp
_audit_creation_method             Generated by GULP
_audit_author_name                 Salvador R. G. Balestra
_symmetry_space_group_name_H-M     'P 1             '
_symmetry_Int_Tables_number        1

loop_
_symmetry_equiv_pos_site_id
_symmetry_equiv_pos_as_xyz
_cell_length_a                        9.1384
_cell_length_b                        7.7598
_cell_length_c                       10.3056
_cell_angle_alpha                   87.0496
_cell_angle_beta                   107.9546
_cell_angle_gamma                   92.1468

loop_
_atom_site_label
_atom_site_type_symbol
_atom_site_fract_x
_atom_site_fract_y
_atom_site_fract_z
_atom_site_charge
  Ge     Ge        0.313819999999964    0.296860000000038    0.309830000000034  0.0000
  Ge     Ge        0.697674187746062    0.343161604027562    0.713517798050654  0.0000
  Ge     Ge        0.648742374673674    0.752646576673521    0.706724351784087  0.0000
  Ge     Ge        0.332861089230676    0.259193521768470    0.626880071519663  0.0000
  Ge     Ge        0.685219922502309    0.369747457496906    0.395581056704150  0.0000
  Ge     Ge        0.627700812622721    0.773779927703733    0.386371838606213  0.0000
  Ge     Ge        0.287496968411047    0.664876379130256    0.626865704206736  0.0000
  Ge     Ge        0.868950133195933    0.059959735491984    0.331368076811153  0.0000
  Ge     Ge        0.083572142748126    0.968912690461481    0.646709365429375  0.0000
  Si     Si        0.268435601862234    0.692912510483217    0.313807832888872  0.0000
  Si     Si        0.084257439756807    0.008074847223925    0.150001849130888  0.0000
  Si     Si        0.887034767304096    0.028417521540548    0.849255468795853  0.0000
  O1     O1        0.255042031874503    0.255314165036735    0.451151145627397  0.0000
  O1     O1        0.756266570792573    0.370931746803533    0.571045556602267  0.0000
  O1     O1        0.704015194111962    0.780160211451206    0.561568018760989  0.0000
  O3     O3        0.223207497850263    0.649579665581757    0.449992072626498  0.0000
  O3     O3        0.279206069668814    0.510924730055837    0.249633294982357  0.0000
  O1     O1        0.677639249428039    0.541133754513292    0.769029704359984  0.0000
  O1     O1        0.507271494364154    0.266402622915223    0.349884333031519  0.0000
  O1     O1        0.526131344622868    0.226732126116939    0.666350833421245  0.0000
  O1     O1        0.455577005100159    0.786782807131968    0.668807212697653  0.0000
  O3     O3        0.431496138237344    0.794611988108976    0.350673687929887  0.0000
  O3     O3        0.215935681946411    0.154848962245635    0.187281165648216  0.0000
  O3     O3        0.826820547630405    0.220850595173092    0.840518526891640  0.0000
  O3     O3        0.749353458076964    0.888440674506943    0.833445836872816  0.0000
  O2     O2        0.143420814579474    0.819104937170486    0.212367965047748  0.0000
  O1     O1        0.315283750417089    0.457804461562046    0.688823690837463  0.0000
  O1     O1        0.665094281452121    0.578921407987851    0.333045786316610  0.0000
  O1     O1        0.235980480899951    0.112313326136900    0.699599196272345  0.0000
  O1     O1        0.816578882430504    0.267915691113011    0.341227333832481  0.0000
  O1     O1        0.703397055962447    0.935512069891274    0.307973247677179  0.0000
  O1     O1        0.155113049330306    0.763878504669349    0.681606270083502  0.0000
  O1     O1        0.009226933877233    0.987166907469273    0.472057943007203  0.0000
  O3     O3        0.937611560084740    0.056586404690618    0.193119353789339  0.0000
  O3     O3        0.942311995638322    0.003913029025126    0.717081695576045  0.0000
  O2     O2        0.028031328251569    0.994230522257177    0.985655002772183  0.0000
