data_c00046.vasp
_audit_creation_method             Generated by GULP
_audit_author_name                 Salvador R. G. Balestra
_symmetry_space_group_name_H-M     'P 1             '
_symmetry_Int_Tables_number        1

loop_
_symmetry_equiv_pos_site_id
_symmetry_equiv_pos_as_xyz
_cell_length_a                        9.3310
_cell_length_b                        7.7664
_cell_length_c                       10.2092
_cell_angle_alpha                   85.4019
_cell_angle_beta                   109.4754
_cell_angle_gamma                   91.6310

loop_
_atom_site_label
_atom_site_type_symbol
_atom_site_fract_x
_atom_site_fract_y
_atom_site_fract_z
_atom_site_charge
  Ge     Ge        0.313819999999964    0.296860000000038    0.309830000000034  0.0000
  Ge     Ge        0.711274837944915    0.320053274808143    0.713744428815451  0.0000
  Ge     Ge        0.345901967232086    0.250894910256533    0.632980583525085  0.0000
  Ge     Ge        0.681614103181330    0.368696960352089    0.391088117210376  0.0000
  Ge     Ge        0.619933227008355    0.773322703010875    0.385273992970894  0.0000
  Ge     Ge        0.318598274678557    0.645626164855525    0.646139042523250  0.0000
  Ge     Ge        0.861167060286764    0.065523126915308    0.326500152775111  0.0000
  Ge     Ge        0.102897037475633    0.960878070902370    0.638391639302686  0.0000
  Ge     Ge        0.078822676733182    0.001574787897610    0.156397776515278  0.0000
  Si     Si        0.659746270524172    0.720622421864167    0.716711975025158  0.0000
  Si     Si        0.280888441299531    0.685450232051551    0.317548381110461  0.0000
  Si     Si        0.904870641310293    0.992697338264029    0.840206167326998  0.0000
  O1     O1        0.262290297913504    0.243741371605060    0.454494258058260  0.0000
  O1     O1        0.765467568647202    0.346132744333349    0.569699009708583  0.0000
  O3     O3        0.676555016938667    0.756517485151356    0.565246076620477  0.0000
  O3     O3        0.312932156999150    0.612916057315406    0.477442778334965  0.0000
  O3     O3        0.269142314239535    0.510154971968884    0.241271417392739  0.0000
  O3     O3        0.699010933289180    0.520839353712006    0.771644638475967  0.0000
  O1     O1        0.505503677160706    0.271365880668234    0.347541851515572  0.0000
  O1     O1        0.536369078173099    0.221424939622327    0.670109167824654  0.0000
  O3     O3        0.489658337889215    0.754639961148445    0.714173313371030  0.0000
  O3     O3        0.425248399995161    0.802542330950690    0.312577622555493  0.0000
  O1     O1        0.211648276485991    0.161739675574549    0.186636862626690  0.0000
  O3     O3        0.838522377267099    0.182777426271439    0.837458672968706  0.0000
  O2     O2        0.771986525745937    0.848038501430514    0.821995481232247  0.0000
  O3     O3        0.136532241492042    0.807306419406483    0.256589634099223  0.0000
  O1     O1        0.319057773708517    0.434640785048607    0.706407188945376  0.0000
  O1     O1        0.665124812810362    0.582842103344328    0.334461167256068  0.0000
  O1     O1        0.257118848825320    0.090045907930731    0.702829582210973  0.0000
  O1     O1        0.804629162700153    0.273464861211585    0.327095002113405  0.0000
  O1     O1        0.704629062410475    0.942279954797998    0.325386262433461  0.0000
  O1     O1        0.171846765460828    0.751399266343009    0.664655960673626  0.0000
  O1     O1        0.019597729624754    0.000495474274968    0.462315200436218  0.0000
  O1     O1        0.914295068400030    0.055857503335119    0.181907835694218  0.0000
  O3     O3        0.964162947184903    0.983676678588691    0.710315624993793  0.0000
  O3     O3        0.038020510017865    0.954237405628906    0.983812903673115  0.0000
