data_c00057.vasp
_audit_creation_method             Generated by GULP
_audit_author_name                 Salvador R. G. Balestra
_symmetry_space_group_name_H-M     'P 1             '
_symmetry_Int_Tables_number        1

loop_
_symmetry_equiv_pos_site_id
_symmetry_equiv_pos_as_xyz
_cell_length_a                        9.1001
_cell_length_b                        7.7616
_cell_length_c                       10.3623
_cell_angle_alpha                   88.6125
_cell_angle_beta                   106.8095
_cell_angle_gamma                   92.1549

loop_
_atom_site_label
_atom_site_type_symbol
_atom_site_fract_x
_atom_site_fract_y
_atom_site_fract_z
_atom_site_charge
  Ge     Ge        0.313819999999964    0.296860000000038    0.309830000000034  0.0000
  Ge     Ge        0.263537322532115    0.704332589978150    0.300878786711808  0.0000
  Ge     Ge        0.321888164083349    0.282751324056231    0.625391806712546  0.0000
  Ge     Ge        0.677823537974855    0.378847294466806    0.400085712432186  0.0000
  Ge     Ge        0.627975185806878    0.787812701569805    0.395896002333197  0.0000
  Ge     Ge        0.264475102520392    0.684072627323340    0.615787107883258  0.0000
  Ge     Ge        0.081008759806495    0.995286760651793    0.684350204969571  0.0000
  Ge     Ge        0.058238335403555    0.015668619479149    0.173636934253791  0.0000
  Ge     Ge        0.853113361284831    0.053199731629851    0.865791366487223  0.0000
  Si     Si        0.679688345130453    0.370210864792963    0.704450570498222  0.0000
  Si     Si        0.624567357499925    0.762404490111848    0.699394560046360  0.0000
  Si     Si        0.874234375266118    0.075020197655748    0.385362275320022  0.0000
  O1     O1        0.254411556945931    0.273659573833796    0.452923346895333  0.0000
  O3     O3        0.740204751196978    0.389804297089747    0.574732517256671  0.0000
  O3     O3        0.688124202114841    0.795564135537832    0.571163971440441  0.0000
  O1     O1        0.203329917745231    0.681436913770614    0.443069071663016  0.0000
  O1     O1        0.291448970967794    0.505913652361630    0.248252148826455  0.0000
  O2     O2        0.654330016559282    0.562768296289637    0.751261076630187  0.0000
  O1     O1        0.507312290894698    0.262829707680777    0.350730390981788  0.0000
  O3     O3        0.518721798073735    0.263761579541877    0.666850653624719  0.0000
  O3     O3        0.443791478613377    0.790380150360942    0.659022463368604  0.0000
  O1     O1        0.435832942133739    0.822780589067000    0.340860662162819  0.0000
  O1     O1        0.207305970479981    0.163569309931206    0.186830675853891  0.0000
  O3     O3        0.797945187576920    0.261927687702934    0.818906765241047  0.0000
  O3     O3        0.711411258959569    0.894625731963328    0.813946993861283  0.0000
  O1     O1        0.130167111572210    0.814055483204916    0.178951552409525  0.0000
  O1     O1        0.278279567664472    0.477960904442532    0.677703276372957  0.0000
  O1     O1        0.660321469376689    0.586662887164800    0.342508867608093  0.0000
  O1     O1        0.243958360505310    0.122301786449400    0.701424100901801  0.0000
  O3     O3        0.811585675289756    0.267175576806696    0.348477972460391  0.0000
  O3     O3        0.732822872353441    0.937618657066917    0.332255447426949  0.0000
  O1     O1        0.134031286198435    0.787881971267120    0.672563219326249  0.0000
  O3     O3        0.934028801589561    0.059322124354861    0.547479494191478  0.0000
  O3     O3        0.008781330917350    0.038183729107806    0.322842242582131  0.0000
  O1     O1        0.015726221919913    0.008984748499671    0.822942562025830  0.0000
  O1     O1        0.903907964990273    0.049125906047531    0.039059698448344  0.0000
