data_c00019.vasp
_audit_creation_method             Generated by GULP
_audit_author_name                 Salvador R. G. Balestra
_symmetry_space_group_name_H-M     'P 1             '
_symmetry_Int_Tables_number        1

loop_
_symmetry_equiv_pos_site_id
_symmetry_equiv_pos_as_xyz
_cell_length_a                        9.2153
_cell_length_b                        7.7472
_cell_length_c                       10.1998
_cell_angle_alpha                   84.2935
_cell_angle_beta                   108.3687
_cell_angle_gamma                   91.8135

loop_
_atom_site_label
_atom_site_type_symbol
_atom_site_fract_x
_atom_site_fract_y
_atom_site_fract_z
_atom_site_charge
  Ge     Ge        0.313819999999964    0.296860000000038    0.309830000000034  0.0000
  Ge     Ge        0.697174144924289    0.301923287939272    0.717945007858947  0.0000
  Ge     Ge        0.651549044969574    0.711916949103440    0.726081908114814  0.0000
  Ge     Ge        0.327519990252237    0.235099936958827    0.629669420218903  0.0000
  Ge     Ge        0.682981557039309    0.373870441904920    0.396553491615672  0.0000
  Ge     Ge        0.619341970149364    0.779846864503318    0.388665685479865  0.0000
  Ge     Ge        0.302007013187632    0.633732373039896    0.647373858883154  0.0000
  Ge     Ge        0.863350058954538    0.070535706887507    0.333973898847323  0.0000
  Ge     Ge        0.084417714902966    0.003496020430957    0.160920585004011  0.0000
  Si     Si        0.280044510308421    0.684747372412056    0.322900982878576  0.0000
  Si     Si        0.090820209009142    0.943016732546953    0.639379829107943  0.0000
  Si     Si        0.906144247649398    0.978379656012313    0.849214230143366  0.0000
  O1     O1        0.254262891737361    0.236921441129365    0.451672569142618  0.0000
  O1     O1        0.753568588740104    0.348430213534356    0.574378594580491  0.0000
  O1     O1        0.671774882874416    0.771985279157942    0.566262231540149  0.0000
  O3     O3        0.317920160124975    0.608146284255326    0.483689794054741  0.0000
  O3     O3        0.266845625468196    0.512277674528504    0.244676270631575  0.0000
  O1     O1        0.683895977771453    0.494943592147527    0.780742619437194  0.0000
  O1     O1        0.506911798910346    0.273299593003587    0.349813272397369  0.0000
  O1     O1        0.521071185949881    0.200534597175426    0.675654702816828  0.0000
  O1     O1        0.466623637151772    0.740598641742451    0.726201994252337  0.0000
  O3     O3        0.423270535006874    0.804931919124883    0.313852979905952  0.0000
  O1     O1        0.219312481854918    0.162708731932855    0.186090766727380  0.0000
  O3     O3        0.833131112989767    0.167395811447598    0.835418168932696  0.0000
  O3     O3        0.775149213013419    0.835449843677327    0.844442932186299  0.0000
  O3     O3        0.134979672906435    0.808160428157632    0.265603006031615  0.0000
  O1     O1        0.293647373086539    0.417682173091651    0.700151987862290  0.0000
  O1     O1        0.668048417334296    0.589148650671550    0.340299386610391  0.0000
  O3     O3        0.236307404096691    0.064488778662160    0.696132083836941  0.0000
  O1     O1        0.812973039236907    0.280448620621153    0.337764997670784  0.0000
  O1     O1        0.701049875909133    0.950506357639396    0.321320263310613  0.0000
  O3     O3        0.146421502227811    0.743631992360011    0.654893875478199  0.0000
  O3     O3        0.010875754123805    0.994013959487102    0.477489639798053  0.0000
  O1     O1        0.923449041276257    0.067407536777890    0.192287485867022  0.0000
  O2     O2        0.968081711167209    0.956195622971802    0.719825655295388  0.0000
  O3     O3        0.042262119526318    0.952542262259552    0.991287106002663  0.0000
