data_c00010.vasp
_audit_creation_method             Generated by GULP
_audit_author_name                 Salvador R. G. Balestra
_symmetry_space_group_name_H-M     'P 1             '
_symmetry_Int_Tables_number        1

loop_
_symmetry_equiv_pos_site_id
_symmetry_equiv_pos_as_xyz
_cell_length_a                        9.0481
_cell_length_b                        7.8302
_cell_length_c                       10.2044
_cell_angle_alpha                   90.6205
_cell_angle_beta                   104.8453
_cell_angle_gamma                   91.2518

loop_
_atom_site_label
_atom_site_type_symbol
_atom_site_fract_x
_atom_site_fract_y
_atom_site_fract_z
_atom_site_charge
  Ge     Ge        0.313819999999964    0.296860000000038    0.309830000000034  0.0000
  Ge     Ge        0.678601103962618    0.383903957144630    0.717689188172704  0.0000
  Ge     Ge        0.622740502909709    0.780912488693586    0.694109273693897  0.0000
  Ge     Ge        0.276481786379362    0.700404523174688    0.292632480674706  0.0000
  Ge     Ge        0.306238705679394    0.315936970984434    0.624198161821258  0.0000
  Ge     Ge        0.678338968393364    0.374493296687195    0.400353421815818  0.0000
  Ge     Ge        0.876150058272431    0.056994062986045    0.385054155159409  0.0000
  Ge     Ge        0.076202825264765    0.006425601986601    0.167925635746924  0.0000
  Ge     Ge        0.864766462166009    0.069851814094606    0.867128428451250  0.0000
  Si     Si        0.631168903149288    0.768726544626064    0.384767062021380  0.0000
  Si     Si        0.263055349058799    0.712824508751710    0.601277962875334  0.0000
  Si     Si        0.083819769359139    0.020263110477469    0.680023600906797  0.0000
  O1     O1        0.243958563700966    0.285159388382011    0.452278293183221  0.0000
  O1     O1        0.741613247996205    0.388473870495941    0.573395547735167  0.0000
  O3     O3        0.686039418567558    0.776649212434171    0.548054788274118  0.0000
  O3     O3        0.212839039474566    0.689579908793741    0.439509236113676  0.0000
  O1     O1        0.289707616913499    0.497330997915644    0.239985263048702  0.0000
  O1     O1        0.665661411937234    0.589786044112806    0.773198186359806  0.0000
  O1     O1        0.505526788654474    0.264068245851892    0.362972985239150  0.0000
  O1     O1        0.498659928955479    0.288365468266568    0.681126947815728  0.0000
  O3     O3        0.427620346903711    0.807063120730881    0.647603843314849  0.0000
  O3     O3        0.452505596811617    0.808949147081235    0.334932566344926  0.0000
  O1     O1        0.218729836873643    0.159645645030827    0.183842291166926  0.0000
  O1     O1        0.810645808020510    0.276390521076841    0.837463525366384  0.0000
  O1     O1        0.704667745843840    0.947144992333263    0.796635156461779  0.0000
  O1     O1        0.154690554604475    0.808945412790452    0.167823617994595  0.0000
  O3     O3        0.268738136804274    0.525598170458894    0.665088614921782  0.0000
  O3     O3        0.654826440224225    0.577035778022335    0.333782030678951  0.0000
  O3     O3        0.212753224459358    0.169021821528565    0.701393089599043  0.0000
  O1     O1        0.801628894251926    0.254796534645271    0.338537479059675  0.0000
  O3     O3        0.731749476831071    0.903165997902119    0.326954619832103  0.0000
  O2     O2        0.144034403763508    0.834481306690916    0.649193291478284  0.0000
  O3     O3        0.936209165041406    0.064069476302969    0.560932416296266  0.0000
  O1     O1        0.024866242820281    0.017885054498556    0.319846079086687  0.0000
  O3     O3        0.025053728801572    0.010359882445035    0.815568692739096  0.0000
  O1     O1        0.919135617838812    0.038439279683143    0.039291479225684  0.0000
