data_c00058.vasp
_audit_creation_method             Generated by GULP
_audit_author_name                 Salvador R. G. Balestra
_symmetry_space_group_name_H-M     'P 1             '
_symmetry_Int_Tables_number        1

loop_
_symmetry_equiv_pos_site_id
_symmetry_equiv_pos_as_xyz
_cell_length_a                        9.1255
_cell_length_b                        7.7688
_cell_length_c                       10.4127
_cell_angle_alpha                   89.1917
_cell_angle_beta                   107.3091
_cell_angle_gamma                   91.6406

loop_
_atom_site_label
_atom_site_type_symbol
_atom_site_fract_x
_atom_site_fract_y
_atom_site_fract_z
_atom_site_charge
  Ge     Ge        0.313819999999964    0.296860000000038    0.309830000000034  0.0000
  Ge     Ge        0.261611118867880    0.711091428658525    0.298152210870274  0.0000
  Ge     Ge        0.327542477181673    0.306993212703020    0.623636008162659  0.0000
  Ge     Ge        0.673230971677422    0.390302833187973    0.391079913992582  0.0000
  Ge     Ge        0.620661056919349    0.798985368556715    0.383833649045342  0.0000
  Ge     Ge        0.878726135323640    0.083517494979104    0.378404807706175  0.0000
  Ge     Ge        0.098394375488490    0.014052558726241    0.683918224945667  0.0000
  Ge     Ge        0.064023606257832    0.019807356234655    0.161617308651867  0.0000
  Ge     Ge        0.861468684100716    0.061763718806777    0.854293294687833  0.0000
  Si     Si        0.688748486727849    0.383778736002373    0.698801068001667  0.0000
  Si     Si        0.633130652540442    0.772529931582530    0.688176455036995  0.0000
  Si     Si        0.275174310784522    0.704224492142087    0.605036185577468  0.0000
  O1     O1        0.257025824075168    0.271994300018572    0.453726699563461  0.0000
  O3     O3        0.740082313100876    0.397905073265894    0.565824153308002  0.0000
  O3     O3        0.691223265104548    0.806811758705295    0.559062938296425  0.0000
  O3     O3        0.205358069538162    0.702980872270986    0.444135061089701  0.0000
  O1     O1        0.287539188855301    0.508262449618226    0.254323654624224  0.0000
  O2     O2        0.676974968860223    0.579790263624797    0.748289183775028  0.0000
  O1     O1        0.507137252245895    0.265019314606873    0.350004441692240  0.0000
  O3     O3        0.523962832947713    0.287337576996383    0.669677577646421  0.0000
  O2     O2        0.448330421512188    0.787754462699654    0.639984557116619  0.0000
  O1     O1        0.428539283778294    0.835948312143317    0.331180414958868  0.0000
  O1     O1        0.213117742355192    0.168086932542452    0.180518573935099  0.0000
  O3     O3        0.810039007469500    0.271460706810537    0.808064223069358  0.0000
  O3     O3        0.711278929794457    0.913668947587172    0.798322767761914  0.0000
  O1     O1        0.128491614098129    0.813408348187865    0.170976056868749  0.0000
  O3     O3        0.282911916195520    0.511793130764164    0.661947684315983  0.0000
  O1     O1        0.643235291798258    0.593831198408074    0.330412264038689  0.0000
  O1     O1        0.246831944234709    0.162859267385736    0.708729403920089  0.0000
  O1     O1        0.807588918437116    0.287284536069473    0.339082994536777  0.0000
  O1     O1        0.726386227367921    0.938970584162276    0.319935731448589  0.0000
  O3     O3        0.169342399790718    0.813329331905232    0.668375113290599  0.0000
  O1     O1        0.945453426751065    0.066113273914977    0.550895627825414  0.0000
  O1     O1        0.020264645866568    0.047686285149276    0.310646071228850  0.0000
  O1     O1        0.026361914671001    0.008320954959103    0.819370027500629  0.0000
  O1     O1        0.909408688600716    0.055899839029726    0.027382519477192  0.0000
