data_c00023.vasp
_audit_creation_method             Generated by GULP
_audit_author_name                 Salvador R. G. Balestra
_symmetry_space_group_name_H-M     'P 1             '
_symmetry_Int_Tables_number        1

loop_
_symmetry_equiv_pos_site_id
_symmetry_equiv_pos_as_xyz
_cell_length_a                        9.2233
_cell_length_b                        7.7065
_cell_length_c                       10.0588
_cell_angle_alpha                   85.1370
_cell_angle_beta                   105.2488
_cell_angle_gamma                   91.5997

loop_
_atom_site_label
_atom_site_type_symbol
_atom_site_fract_x
_atom_site_fract_y
_atom_site_fract_z
_atom_site_charge
  Ge     Ge        0.313819999999964    0.296860000000038    0.309830000000034  0.0000
  Ge     Ge        0.654395245607561    0.322462224965745    0.724047977946828  0.0000
  Ge     Ge        0.619164272936600    0.722196358343956    0.734462829998127  0.0000
  Ge     Ge        0.313234489047238    0.229580529736054    0.642199153751732  0.0000
  Ge     Ge        0.655308007451275    0.373647690584980    0.392899330607188  0.0000
  Ge     Ge        0.628188609921530    0.769857637450009    0.413710039691540  0.0000
  Ge     Ge        0.260518010493949    0.646109301569161    0.633656160056297  0.0000
  Ge     Ge        0.064514297338802    0.018765622964449    0.194861509613167  0.0000
  Ge     Ge        0.860901960515525    0.002034768370298    0.880521145430870  0.0000
  Si     Si        0.275526310889940    0.701853369952925    0.322145598196580  0.0000
  Si     Si        0.866338267123390    0.060617076751147    0.409194636631202  0.0000
  Si     Si        0.072603027792538    0.939720608432598    0.698098140589035  0.0000
  O1     O1        0.280677622422843    0.227508297510643    0.466457523623316  0.0000
  O1     O1        0.623408334104592    0.399712752740641    0.552604906624585  0.0000
  O1     O1        0.684584257449255    0.770718996856639    0.590284518581907  0.0000
  O3     O3        0.212095853969960    0.660352627425037    0.455394918120600  0.0000
  O3     O3        0.297238576093630    0.519967289809895    0.265193454882524  0.0000
  O1     O1        0.657339543509924    0.511002123287755    0.803551825581221  0.0000
  O1     O1        0.497610179830584    0.265633302690242    0.308347946102298  0.0000
  O1     O1        0.498980400649988    0.193759826812945    0.725229557675966  0.0000
  O1     O1        0.428166616377092    0.750539361969551    0.695241625329026  0.0000
  O3     O3        0.435335826601685    0.802336697620654    0.365448529338209  0.0000
  O1     O1        0.190171249560630    0.186175529245028    0.188527136880335  0.0000
  O1     O1        0.811162832979636    0.202850636335841    0.793131915182755  0.0000
  O1     O1        0.714389730925054    0.858850043900452    0.854653776184819  0.0000
  O3     O3        0.158048882419224    0.823441939224909    0.210275824221101  0.0000
  O1     O1        0.270058340708104    0.429825749813638    0.687146794114069  0.0000
  O1     O1        0.672771763952456    0.590032532674219    0.342099909036392  0.0000
  O3     O3        0.214333203073308    0.066302588277289    0.706779473130722  0.0000
  O3     O3        0.814150930867688    0.261793641610609    0.392912377436788  0.0000
  O3     O3        0.721055532456652    0.944097161750081    0.350217158106693  0.0000
  O3     O3        0.117772454397007    0.745231870314539    0.680227539886709  0.0000
  O2     O2        0.930886294209366    0.009367036806353    0.573649060350577  0.0000
  O3     O3        0.998973695456866    0.039408455851041    0.339341309252083  0.0000
  O3     O3        0.017944368944298    0.932285043012517    0.836694525390928  0.0000
  O1     O1        0.915227944306146    0.030708586485913    0.054340995646261  0.0000
