data_c00052.vasp
_audit_creation_method             Generated by GULP
_audit_author_name                 Salvador R. G. Balestra
_symmetry_space_group_name_H-M     'P 1             '
_symmetry_Int_Tables_number        1

loop_
_symmetry_equiv_pos_site_id
_symmetry_equiv_pos_as_xyz
_cell_length_a                        9.3113
_cell_length_b                        7.7884
_cell_length_c                       10.1614
_cell_angle_alpha                   82.8256
_cell_angle_beta                   109.0823
_cell_angle_gamma                   91.5911

loop_
_atom_site_label
_atom_site_type_symbol
_atom_site_fract_x
_atom_site_fract_y
_atom_site_fract_z
_atom_site_charge
  Ge     Ge        0.313819999999964    0.296860000000038    0.309830000000034  0.0000
  Ge     Ge        0.658871991965760    0.675612104774723    0.732304222237993  0.0000
  Ge     Ge        0.352320577641409    0.213416100344563    0.646590410538810  0.0000
  Ge     Ge        0.678255518321378    0.356483364989243    0.397032429717746  0.0000
  Ge     Ge        0.628119858321151    0.763095030231032    0.407410021313191  0.0000
  Ge     Ge        0.859390974976705    0.059485754896503    0.334746013445387  0.0000
  Ge     Ge        0.112096585258087    0.918792342807265    0.642175795964042  0.0000
  Ge     Ge        0.086338708489340    0.998514378348261    0.173698082477567  0.0000
  Ge     Ge        0.911523370344951    0.941311901384845    0.855879260975856  0.0000
  Si     Si        0.705299612145865    0.269430527802054    0.716594919206861  0.0000
  Si     Si        0.291279904203815    0.677680432318405    0.336446123459281  0.0000
  Si     Si        0.322588608372304    0.599554395537283    0.653722075608258  0.0000
  O1     O1        0.312111155369409    0.199625576149992    0.470950392049952  0.0000
  O3     O3        0.704202786270569    0.243940242492454    0.561827316061593  0.0000
  O1     O1        0.652112020442879    0.797435573011834    0.576543446081618  0.0000
  O2     O2        0.361961753559606    0.609258544451914    0.505568016986727  0.0000
  O3     O3        0.232485220585832    0.504902699796985    0.267166641295037  0.0000
  O3     O3        0.728759601303865    0.470045126782131    0.738559797300301  0.0000
  O1     O1        0.492756217076243    0.323437220568881    0.299740339663924  0.0000
  O3     O3        0.545541919733622    0.203645046216558    0.732442639672035  0.0000
  O3     O3        0.482028925987996    0.658583997965634    0.757438155922483  0.0000
  O3     O3        0.438193520281598    0.759485578566189    0.302944438194120  0.0000
  O1     O1        0.207262776150205    0.169810388918799    0.189686504028125  0.0000
  O3     O3        0.839568807388278    0.151515619368134    0.826594033931531  0.0000
  O1     O1        0.775638217164391    0.787766832860046    0.859093225948751  0.0000
  O3     O3        0.162654353226443    0.821019966224510    0.299671013766050  0.0000
  O3     O3        0.285094758977664    0.400553464894835    0.685482365480907  0.0000
  O1     O1        0.714685105217952    0.571561495674898    0.406090505207200  0.0000
  O1     O1        0.263308926725482    0.046741047310922    0.713442401193927  0.0000
  O1     O1        0.802766015227232    0.268576171049994    0.332302680078984  0.0000
  O1     O1        0.706980401791214    0.930965481194576    0.331288108524898  0.0000
  O3     O3        0.180748576605043    0.712175881615314    0.645238169842558  0.0000
  O1     O1        0.022160349162525    0.007422942613364    0.473533693551595  0.0000
  O1     O1        0.916634140098446    0.049915499842459    0.191211755646382  0.0000
  O1     O1        0.983554104769200    0.893857812801403    0.728695255049442  0.0000
  O1     O1        0.054273521551963    0.929447811608791    0.013034854715109  0.0000
