data_c00024.vasp
_audit_creation_method             Generated by GULP
_audit_author_name                 Salvador R. G. Balestra
_symmetry_space_group_name_H-M     'P 1             '
_symmetry_Int_Tables_number        1

loop_
_symmetry_equiv_pos_site_id
_symmetry_equiv_pos_as_xyz
_cell_length_a                        9.2633
_cell_length_b                        7.7378
_cell_length_c                       10.2997
_cell_angle_alpha                   84.6675
_cell_angle_beta                   109.0335
_cell_angle_gamma                   91.5945

loop_
_atom_site_label
_atom_site_type_symbol
_atom_site_fract_x
_atom_site_fract_y
_atom_site_fract_z
_atom_site_charge
  Ge     Ge        0.313819999999964    0.296860000000038    0.309830000000034  0.0000
  Ge     Ge        0.711059297562489    0.314642670245318    0.711953360039715  0.0000
  Ge     Ge        0.657669606397195    0.724360406757019    0.714528158198393  0.0000
  Ge     Ge        0.343224035132133    0.249128119507092    0.630188628788784  0.0000
  Ge     Ge        0.680679744702949    0.375160334462336    0.388575941836756  0.0000
  Ge     Ge        0.616376592920392    0.783448414737257    0.379678057748458  0.0000
  Ge     Ge        0.858549514285158    0.071854802173238    0.322460609721656  0.0000
  Ge     Ge        0.102143583819769    0.951774732143578    0.634181344688953  0.0000
  Ge     Ge        0.080246918056820    0.005222499948448    0.155934190286984  0.0000
  Si     Si        0.278135289858905    0.688402154449204    0.318829640645590  0.0000
  Si     Si        0.315610677494772    0.641329373633390    0.637020227903257  0.0000
  Si     Si        0.910903873966542    0.986136577449172    0.843214078444116  0.0000
  O1     O1        0.263722910338130    0.238180224959960    0.454512951016554  0.0000
  O1     O1        0.759008021420698    0.350504270356679    0.565093596047999  0.0000
  O1     O1        0.677766176029319    0.781168884706377    0.556249027173350  0.0000
  O2     O2        0.319982846888525    0.617337727467293    0.481274128247131  0.0000
  O3     O3        0.265352266366721    0.512507887042354    0.245809403835413  0.0000
  O1     O1        0.704431859742182    0.511218398607412    0.772576411936659  0.0000
  O1     O1        0.505878610722654    0.272489675085545    0.346337455804063  0.0000
  O1     O1        0.535676049722667    0.212957969564472    0.675749914245302  0.0000
  O3     O3        0.468513553860848    0.746669511215223    0.707789078945079  0.0000
  O3     O3        0.419891863793586    0.808325887526530    0.308920564599006  0.0000
  O1     O1        0.214527081916065    0.164733807764541    0.186566680818112  0.0000
  O3     O3        0.851775690798378    0.182958111791505    0.827056726203282  0.0000
  O3     O3        0.767817861871761    0.858205340070769    0.832393391178485  0.0000
  O3     O3        0.132085141134633    0.809639024966087    0.259485847041031  0.0000
  O3     O3        0.317453998010210    0.442187078719986    0.695504174799588  0.0000
  O1     O1        0.661046181952563    0.589955937523418    0.332423161940913  0.0000
  O1     O1        0.247080670239511    0.093024243617144    0.699389762243626  0.0000
  O1     O1        0.805696325883401    0.281691209597851    0.325781172100371  0.0000
  O1     O1        0.697855543666533    0.949999661634280    0.310285065271746  0.0000
  O3     O3        0.172352357254406    0.741624948584104    0.644668824674378  0.0000
  O1     O1        0.010016287389101    0.002051974847218    0.462799734596725  0.0000
  O1     O1        0.916593629542781    0.067349757057303    0.181048036404414  0.0000
  O3     O3        0.971433133283316    0.943537260972344    0.719872752745087  0.0000
  O3     O3        0.042982078380895    0.954280974146667    0.987714899047291  0.0000
