data_c00040.vasp
_audit_creation_method             Generated by GULP
_audit_author_name                 Salvador R. G. Balestra
_symmetry_space_group_name_H-M     'P 1             '
_symmetry_Int_Tables_number        1

loop_
_symmetry_equiv_pos_site_id
_symmetry_equiv_pos_as_xyz
_cell_length_a                        9.1377
_cell_length_b                        7.8395
_cell_length_c                       10.1685
_cell_angle_alpha                   87.8620
_cell_angle_beta                   106.2909
_cell_angle_gamma                   91.7670

loop_
_atom_site_label
_atom_site_type_symbol
_atom_site_fract_x
_atom_site_fract_y
_atom_site_fract_z
_atom_site_charge
  Ge     Ge        0.313819999999964    0.296860000000038    0.309830000000034  0.0000
  Ge     Ge        0.679354439641717    0.337396899016004    0.714725783624394  0.0000
  Ge     Ge        0.642315302227378    0.742361699165254    0.708358533537290  0.0000
  Ge     Ge        0.681719429848059    0.355015442925340    0.393780778270694  0.0000
  Ge     Ge        0.632302111783864    0.757955270585742    0.387963637213303  0.0000
  Ge     Ge        0.280124509741370    0.668118737467476    0.621136758676321  0.0000
  Ge     Ge        0.867492847822006    0.046043402089821    0.323823343500755  0.0000
  Ge     Ge        0.083418629637606    0.981457459365029    0.633494258073087  0.0000
  Ge     Ge        0.883321349480658    0.027274910131080    0.847750522916103  0.0000
  Si     Si        0.271508228095553    0.690796854054091    0.310099459313662  0.0000
  Si     Si        0.322682691053519    0.272242492599050    0.623400162717881  0.0000
  Si     Si        0.090522826610021    0.001386575327673    0.145058363245562  0.0000
  O3     O3        0.257569111552379    0.271800140026100    0.458056031260924  0.0000
  O1     O1        0.741141359288046    0.352234010041139    0.569918452612856  0.0000
  O1     O1        0.704568377145862    0.768406103021660    0.563218842949489  0.0000
  O3     O3        0.213335845607719    0.662584494617706    0.443600610051906  0.0000
  O3     O3        0.280257141779694    0.506850699920635    0.247734233301238  0.0000
  O1     O1        0.666424331982293    0.535104105892336    0.771410462314256  0.0000
  O1     O1        0.503047798571922    0.259242636497835    0.339793591900443  0.0000
  O3     O3        0.501372337560024    0.234313956719028    0.664137558129297  0.0000
  O1     O1        0.450868781430556    0.778371420664836    0.666524858290017  0.0000
  O3     O3        0.437591458123868    0.780580435967929    0.352668773382897  0.0000
  O3     O3        0.210819265788520    0.154825775320101    0.192995651426723  0.0000
  O1     O1        0.799148741244274    0.220273143157997    0.843027967323174  0.0000
  O1     O1        0.745601038282642    0.870435006012700    0.834891704621510  0.0000
  O2     O2        0.157629315881835    0.817108729626084    0.202842842392648  0.0000
  O3     O3        0.300921627155865    0.458226910523275    0.679048688798572  0.0000
  O1     O1        0.670740802704878    0.563355226360011    0.335208726868530  0.0000
  O3     O3        0.230220349986881    0.132420857448114    0.686862043552746  0.0000
  O1     O1        0.812353176957700    0.250762942571701    0.336603038177469  0.0000
  O1     O1        0.708230280539293    0.917295393973195    0.307958182474902  0.0000
  O1     O1        0.155631122600885    0.779858129948285    0.680200398199710  0.0000
  O1     O1        0.016238486674114    0.984045069930631    0.457959416970967  0.0000
  O3     O3        0.932706230494233    0.035088537043066    0.179735366102348  0.0000
  O1     O1        0.938037565412831    0.022261711627411    0.698458674450090  0.0000
  O3     O3        0.045312480359521    0.997136048679129    0.980715978971856  0.0000
