data_c00008.vasp
_audit_creation_method             Generated by GULP
_audit_author_name                 Salvador R. G. Balestra
_symmetry_space_group_name_H-M     'P 1             '
_symmetry_Int_Tables_number        1

loop_
_symmetry_equiv_pos_site_id
_symmetry_equiv_pos_as_xyz
_cell_length_a                        9.1611
_cell_length_b                        7.7374
_cell_length_c                       10.1312
_cell_angle_alpha                   86.4727
_cell_angle_beta                   104.8314
_cell_angle_gamma                   91.7472

loop_
_atom_site_label
_atom_site_type_symbol
_atom_site_fract_x
_atom_site_fract_y
_atom_site_fract_z
_atom_site_charge
  Ge     Ge        0.313819999999964    0.296860000000038    0.309830000000034  0.0000
  Ge     Ge        0.669555990182216    0.331324278509767    0.723619993132736  0.0000
  Ge     Ge        0.619305009469799    0.738937104628371    0.727294940024416  0.0000
  Ge     Ge        0.276820665903787    0.695833896923110    0.316866377915209  0.0000
  Ge     Ge        0.303381695556479    0.266136952388734    0.627442124700312  0.0000
  Ge     Ge        0.675365447911224    0.381692696214501    0.403685391766160  0.0000
  Ge     Ge        0.619174801037845    0.794114887386916    0.396444088722518  0.0000
  Ge     Ge        0.075178008186430    0.011046749024723    0.161732637415205  0.0000
  Ge     Ge        0.878749981218440    0.007227311908279    0.848205314404821  0.0000
  Si     Si        0.281455795131470    0.656884900738988    0.636010924876605  0.0000
  Si     Si        0.859361125422220    0.084009785234577    0.340638492325344  0.0000
  Si     Si        0.070138596912926    0.967599638596560    0.627635520589017  0.0000
  O1     O1        0.249429365323648    0.250775812809045    0.453758058257030  0.0000
  O1     O1        0.730031240371689    0.368595058033086    0.577830016285802  0.0000
  O1     O1        0.652468267103676    0.796790211645447    0.570510204348011  0.0000
  O3     O3        0.311483046801499    0.621896479363570    0.488396261414054  0.0000
  O1     O1        0.272421417552688    0.504240794641972    0.240549739283311  0.0000
  O1     O1        0.656827995038415    0.528187315610929    0.785531427750010  0.0000
  O1     O1        0.505560125504422    0.273941823848787    0.350708110547473  0.0000
  O1     O1        0.493868578983750    0.229916414077369    0.685405185693842  0.0000
  O3     O3        0.427536196024904    0.758135026192719    0.719003241343190  0.0000
  O1     O1        0.432030406089267    0.825308156808807    0.315306646827469  0.0000
  O1     O1        0.222317252935820    0.155106695626124    0.190963922780195  0.0000
  O1     O1        0.806052321104150    0.210446327363208    0.834671527490864  0.0000
  O1     O1        0.727099189593769    0.868845115970938    0.844547029541540  0.0000
  O1     O1        0.120374082349155    0.812718828529563    0.247885518231099  0.0000
  O3     O3        0.262190604206925    0.460277243807961    0.690727789400709  0.0000
  O1     O1        0.662323321870290    0.595008618234881    0.348819832006620  0.0000
  O3     O3        0.199503286650917    0.104540244047561    0.691562707622271  0.0000
  O3     O3        0.813586380440500    0.280035692844871    0.349811436041983  0.0000
  O3     O3        0.715778554906206    0.958955386653900    0.333254996879292  0.0000
  O2     O2        0.136935488297950    0.774717353388970    0.627216469574747  0.0000
  O2     O2        0.996704994400761    0.022351231612509    0.468593571548550  0.0000
  O3     O3        0.916962139823445    0.081897707130674    0.204704898796532  0.0000
  O3     O3        0.942378655139489    0.955742033318853    0.707647469137548  0.0000
  O1     O1        0.023576870745245    0.978020884478498    0.989808403845237  0.0000
