data_c00059.vasp
_audit_creation_method             Generated by GULP
_audit_author_name                 Salvador R. G. Balestra
_symmetry_space_group_name_H-M     'P 1             '
_symmetry_Int_Tables_number        1

loop_
_symmetry_equiv_pos_site_id
_symmetry_equiv_pos_as_xyz
_cell_length_a                        9.1912
_cell_length_b                        7.8032
_cell_length_c                       10.3198
_cell_angle_alpha                   88.6916
_cell_angle_beta                   107.0606
_cell_angle_gamma                   92.1608

loop_
_atom_site_label
_atom_site_type_symbol
_atom_site_fract_x
_atom_site_fract_y
_atom_site_fract_z
_atom_site_charge
  Ge     Ge        0.313819999999964    0.296860000000038    0.309830000000034  0.0000
  Ge     Ge        0.271309505189315    0.702806087096747    0.298508491317270  0.0000
  Ge     Ge        0.330941584107026    0.289551888933518    0.627725155885828  0.0000
  Ge     Ge        0.676591165381980    0.379067193374424    0.398323879092107  0.0000
  Ge     Ge        0.279201160591547    0.691413043529127    0.619799399770976  0.0000
  Ge     Ge        0.873252645121393    0.066330770978885    0.389311032397832  0.0000
  Ge     Ge        0.097819992860859    0.001240044116412    0.693048322415793  0.0000
  Ge     Ge        0.064522341215665    0.010811787672098    0.173737280332602  0.0000
  Ge     Ge        0.867212609113098    0.054558963794143    0.865500065892341  0.0000
  Si     Si        0.689096275536382    0.368429971465150    0.704177673219236  0.0000
  Si     Si        0.635359912677925    0.758976610274257    0.695755339880617  0.0000
  Si     Si        0.624916739013131    0.777358225910515    0.389316637761376  0.0000
  O1     O1        0.256497562856787    0.274778964918200    0.454690408424897  0.0000
  O3     O3        0.749215814444447    0.377106523256104    0.573964294097491  0.0000
  O2     O2        0.677086014954359    0.781416007127145    0.554308559255235  0.0000
  O1     O1        0.220249340323628    0.692591532885959    0.446041277329656  0.0000
  O1     O1        0.283857541747485    0.502276445025874    0.244693391881465  0.0000
  O2     O2        0.670343073048300    0.562688167123128    0.750202356609511  0.0000
  O1     O1        0.505624270960852    0.267321582812532    0.351589074075056  0.0000
  O3     O3        0.525431633632019    0.271122326528526    0.665972677041403  0.0000
  O3     O3        0.459121858033478    0.791114138164895    0.672520898777814  0.0000
  O3     O3        0.447314810275473    0.813005060333206    0.334400112792564  0.0000
  O1     O1        0.209375064388895    0.162048551825128    0.187524587602028  0.0000
  O3     O3        0.804156026342542    0.259833884108587    0.820682680266452  0.0000
  O3     O3        0.733822757087978    0.893174409712747    0.801674046628639  0.0000
  O1     O1        0.141374534137998    0.813355482359788    0.176137427033491  0.0000
  O1     O1        0.287846900837579    0.484419242507407    0.678331292540030  0.0000
  O3     O3        0.654591434706429    0.588461760828938    0.342058267554859  0.0000
  O1     O1        0.257131487776460    0.129808762870692    0.706460803826063  0.0000
  O1     O1        0.801592899030811    0.267266653361649    0.341654592677744  0.0000
  O3     O3        0.723810782167222    0.915471525371063    0.334685274094063  0.0000
  O1     O1        0.150661538305070    0.795911308955400    0.676724521820656  0.0000
  O1     O1        0.944375306346381    0.061428076175528    0.562586464963736  0.0000
  O1     O1        0.013949112461359    0.023439027617274    0.321910096509180  0.0000
  O1     O1        0.036079194795068    0.017669883595564    0.834175214520432  0.0000
  O1     O1        0.909017747067437    0.043502579915025    0.039293436180466  0.0000
