data_c00053.vasp
_audit_creation_method             Generated by GULP
_audit_author_name                 Salvador R. G. Balestra
_symmetry_space_group_name_H-M     'P 1             '
_symmetry_Int_Tables_number        1

loop_
_symmetry_equiv_pos_site_id
_symmetry_equiv_pos_as_xyz
_cell_length_a                        9.1962
_cell_length_b                        7.8355
_cell_length_c                       10.3308
_cell_angle_alpha                   86.5094
_cell_angle_beta                   106.9001
_cell_angle_gamma                   91.7608

loop_
_atom_site_label
_atom_site_type_symbol
_atom_site_fract_x
_atom_site_fract_y
_atom_site_fract_z
_atom_site_charge
  Ge     Ge        0.313819999999964    0.296860000000038    0.309830000000034  0.0000
  Ge     Ge        0.641365990127410    0.724139434976248    0.706445454072052  0.0000
  Ge     Ge        0.332521228369691    0.258781865370381    0.628539736777212  0.0000
  Ge     Ge        0.678068726189741    0.362556562262935    0.395492272382452  0.0000
  Ge     Ge        0.279642341561753    0.664019229019263    0.618557300828913  0.0000
  Ge     Ge        0.872866664732806    0.046904399723044    0.390967889235867  0.0000
  Ge     Ge        0.096840072243496    0.969120500246022    0.691704595468646  0.0000
  Ge     Ge        0.079644393868018    0.003114889888001    0.187121812966724  0.0000
  Ge     Ge        0.877087706228897    0.012600087909534    0.875216292773072  0.0000
  Si     Si        0.687406779190380    0.327409294650571    0.705895320044747  0.0000
  Si     Si        0.285286445875967    0.691804748304642    0.312246466570963  0.0000
  Si     Si        0.639271889170158    0.754290927472244    0.400896599506075  0.0000
  O1     O1        0.260933639204530    0.253268097988438    0.455281444801091  0.0000
  O3     O3        0.738546178542569    0.356701674078660    0.570792985301914  0.0000
  O3     O3        0.703731230869112    0.758349005519545    0.563684011772818  0.0000
  O3     O3        0.223840196101097    0.667841691107058    0.442708965534506  0.0000
  O3     O3        0.288127275856357    0.509875157627242    0.252295843430968  0.0000
  O3     O3        0.667362172299687    0.509994818273216    0.761190986271751  0.0000
  O1     O1        0.504095428760960    0.263241088052280    0.341286509943610  0.0000
  O3     O3        0.526125671932912    0.226959597186985    0.669510262761941  0.0000
  O1     O1        0.452771847531991    0.766005183337951    0.675325236790769  0.0000
  O2     O2        0.456731054539128    0.771226592543317    0.365706413279127  0.0000
  O1     O1        0.202496147588274    0.173320101556067    0.188090763195903  0.0000
  O3     O3        0.810818800274136    0.214988346471344    0.815886729569163  0.0000
  O1     O1        0.744054950423370    0.853642643994903    0.827210195308773  0.0000
  O3     O3        0.182272765756012    0.817742985533297    0.198301029672124  0.0000
  O1     O1        0.294019424742549    0.454229841307860    0.677207392052070  0.0000
  O3     O3        0.674376173514545    0.576845995684889    0.345161743488288  0.0000
  O1     O1        0.253827698338254    0.099053549006648    0.705930540860315  0.0000
  O1     O1        0.802585414213982    0.249655111244231    0.340760415890917  0.0000
  O3     O3        0.718936145942809    0.905873883707396    0.336882444579909  0.0000
  O1     O1        0.144449830409505    0.765027014250228    0.667513037786159  0.0000
  O1     O1        0.941992064527953    0.039199436911854    0.564246378761689  0.0000
  O1     O1        0.017709007624385    0.001611509286671    0.329398926286935  0.0000
  O1     O1        0.040871820800152    0.970841974683951    0.836251366181732  0.0000
  O1     O1        0.925465774460995    0.013555052294695    0.049326594659115  0.0000
