data_c00006.vasp
_audit_creation_method             Generated by GULP
_audit_author_name                 Salvador R. G. Balestra
_symmetry_space_group_name_H-M     'P 1             '
_symmetry_Int_Tables_number        1

loop_
_symmetry_equiv_pos_site_id
_symmetry_equiv_pos_as_xyz
_cell_length_a                        9.0854
_cell_length_b                        7.7544
_cell_length_c                       10.2448
_cell_angle_alpha                   88.9206
_cell_angle_beta                   106.0733
_cell_angle_gamma                   91.6560

loop_
_atom_site_label
_atom_site_type_symbol
_atom_site_fract_x
_atom_site_fract_y
_atom_site_fract_z
_atom_site_charge
  Ge     Ge        0.313819999999964    0.296860000000038    0.309830000000034  0.0000
  Ge     Ge        0.678132256200651    0.372172342971557    0.718984056125771  0.0000
  Ge     Ge        0.627965316816385    0.775249027875829    0.704089152013775  0.0000
  Ge     Ge        0.259489833382901    0.702084220085913    0.301651758123920  0.0000
  Ge     Ge        0.312763977365432    0.295577640086756    0.624732559561491  0.0000
  Ge     Ge        0.678730662143774    0.383218334556584    0.402268032514400  0.0000
  Ge     Ge        0.620716377096877    0.788829311861844    0.382685712588686  0.0000
  Ge     Ge        0.067116894070628    0.998742970471527    0.631655832863502  0.0000
  Ge     Ge        0.065447803026494    0.015539662295010    0.140989596245341  0.0000
  Si     Si        0.272915859625851    0.693119584626811    0.618048480130437  0.0000
  Si     Si        0.858896009887338    0.075183702781264    0.333226637186142  0.0000
  Si     Si        0.866093820040526    0.054945561228821    0.836521860134767  0.0000
  O1     O1        0.248900085979307    0.270450213903576    0.451697496380007  0.0000
  O1     O1        0.737139693276755    0.404159125088491    0.575140019096393  0.0000
  O1     O1        0.682885275131002    0.792992895660752    0.556871670135918  0.0000
  O3     O3        0.221198747001200    0.666478964667528    0.456109673105241  0.0000
  O1     O1        0.280793345550786    0.502163436736802    0.243018048062972  0.0000
  O1     O1        0.663506124089632    0.573492058787184    0.778015133427629  0.0000
  O1     O1        0.507991144371944    0.268720568199812    0.357457120433408  0.0000
  O1     O1        0.505554588151558    0.259508215188181    0.676769293520188  0.0000
  O3     O3        0.431699586550683    0.804455465080240    0.658286551518374  0.0000
  O1     O1        0.427449547328481    0.821571065536634    0.327302966202106  0.0000
  O1     O1        0.222171071890557    0.149943237101487    0.190451601905319  0.0000
  O3     O3        0.810202930744711    0.249310641990396    0.835850607217244  0.0000
  O3     O3        0.721640445517860    0.923896275908634    0.823662782169852  0.0000
  O1     O1        0.113571545014711    0.808316385508364    0.192113080628217  0.0000
  O3     O3        0.295175662513350    0.502582908371964    0.681828638189678  0.0000
  O1     O1        0.656572447699059    0.586476773561961    0.331926676376646  0.0000
  O1     O1        0.204447317152723    0.155611450551397    0.692322064905047  0.0000
  O3     O3        0.817910808727417    0.269711967649824    0.358137345470577  0.0000
  O3     O3        0.711297893637011    0.948993345876251    0.313249909834225  0.0000
  O3     O3        0.148400612261387    0.796929718034105    0.666643798752808  0.0000
  O3     O3        0.997317245368641    0.007241667648346    0.456387391869920  0.0000
  O3     O3        0.914161427726104    0.080201902039062    0.197690571189130  0.0000
  O3     O3        0.917726602603921    0.020001002636770    0.700333138315026  0.0000
  O3     O3        0.006077529033603    0.017559896410801    0.965136367619916  0.0000
