data_c00002.vasp
_audit_creation_method             Generated by GULP
_audit_author_name                 Salvador R. G. Balestra
_symmetry_space_group_name_H-M     'P 1             '
_symmetry_Int_Tables_number        1

loop_
_symmetry_equiv_pos_site_id
_symmetry_equiv_pos_as_xyz
_cell_length_a                        8.9873
_cell_length_b                        7.7755
_cell_length_c                       10.3315
_cell_angle_alpha                   88.7996
_cell_angle_beta                   105.7390
_cell_angle_gamma                   92.3720

loop_
_atom_site_label
_atom_site_type_symbol
_atom_site_fract_x
_atom_site_fract_y
_atom_site_fract_z
_atom_site_charge
  Ge     Ge        0.313819999999964    0.296860000000038    0.309830000000034  0.0000
  Ge     Ge        0.670499957822997    0.369074615493066    0.716645997563509  0.0000
  Ge     Ge        0.622981594154988    0.772605801605518    0.705687084542497  0.0000
  Ge     Ge        0.254961384894848    0.698640014720552    0.299751521601986  0.0000
  Ge     Ge        0.299729378430992    0.286689660508910    0.619402276606289  0.0000
  Ge     Ge        0.682206153399888    0.386235144144836    0.406768079306711  0.0000
  Ge     Ge        0.622816519211666    0.789096046569691    0.389731705405540  0.0000
  Ge     Ge        0.253472272861357    0.690950416026439    0.615352246095889  0.0000
  Ge     Ge        0.067488422025445    0.013741818160244    0.142937679575827  0.0000
  Si     Si        0.861213238188825    0.078595576817508    0.342721403101286  0.0000
  Si     Si        0.056498574610022    0.995905055475527    0.637228328167906  0.0000
  Si     Si        0.861766145829234    0.057170333121878    0.840202405753633  0.0000
  O1     O1        0.240413878475571    0.275625610872647    0.447106819946867  0.0000
  O1     O1        0.738671847052897    0.404081925340968    0.578337062782602  0.0000
  O1     O1        0.683740094840449    0.791057359043710    0.562074284657105  0.0000
  O1     O1        0.197397315296941    0.669305174455021    0.444033949608509  0.0000
  O1     O1        0.282808126672785    0.501143451518421    0.242510781894848  0.0000
  O1     O1        0.649593916524847    0.568164074030745    0.774867434809937  0.0000
  O1     O1        0.509292853860973    0.270893351380935    0.362512210942624  0.0000
  O1     O1        0.495291304922999    0.256945139743350    0.669879374928792  0.0000
  O1     O1        0.427612643162994    0.804271682504500    0.662000860319405  0.0000
  O1     O1        0.427405252139574    0.817120575055558    0.338660900631777  0.0000
  O1     O1        0.227724518841940    0.147379786287058    0.191763641198278  0.0000
  O3     O3        0.798343577504777    0.247206785278465    0.835822121375807  0.0000
  O3     O3        0.721165547696910    0.917966588797529    0.826283958344365  0.0000
  O1     O1        0.116538548768080    0.805951486891757    0.183095342312586  0.0000
  O1     O1        0.269413650600248    0.485278303787360    0.677936660150690  0.0000
  O1     O1        0.661925876713472    0.589404532612033    0.338343665336767  0.0000
  O3     O3        0.198766144932244    0.131873727605872    0.686780976937933  0.0000
  O3     O3        0.820396054962012    0.274319953858107    0.359121178687415  0.0000
  O3     O3        0.710812992969917    0.952255141590088    0.318957180349073  0.0000
  O3     O3        0.118180310879319    0.804616020369757    0.667606596246320  0.0000
  O2     O2        0.989498527626027    0.013175569045557    0.475240821877131  0.0000
  O3     O3        0.925690643544994    0.076171604626227    0.213723877929365  0.0000
  O2     O2        0.922412676994750    0.030588525469742    0.707388637338608  0.0000
  O3     O3        0.999443512861868    0.027396232567465    0.970382627638889  0.0000
