data_c00044.vasp
_audit_creation_method             Generated by GULP
_audit_author_name                 Salvador R. G. Balestra
_symmetry_space_group_name_H-M     'P 1             '
_symmetry_Int_Tables_number        1

loop_
_symmetry_equiv_pos_site_id
_symmetry_equiv_pos_as_xyz
_cell_length_a                        9.2259
_cell_length_b                        7.8328
_cell_length_c                       10.3478
_cell_angle_alpha                   89.1347
_cell_angle_beta                   107.1274
_cell_angle_gamma                   89.4183

loop_
_atom_site_label
_atom_site_type_symbol
_atom_site_fract_x
_atom_site_fract_y
_atom_site_fract_z
_atom_site_charge
  Ge     Ge        0.313819999999964    0.296860000000038    0.309830000000034  0.0000
  Ge     Ge        0.684136479140692    0.218304881098479    0.709366613599446  0.0000
  Ge     Ge        0.733317004053450    0.621027700218797    0.721660726694979  0.0000
  Ge     Ge        0.677993616084502    0.234642500963878    0.394736485611555  0.0000
  Ge     Ge        0.373958236301823    0.687128116641872    0.637222922971761  0.0000
  Ge     Ge        0.911636676404485    0.937572719808593    0.396422195075613  0.0000
  Ge     Ge        0.142642599022544    0.980537469822807    0.695429315346052  0.0000
  Ge     Ge        0.122764923860590    0.975385049086585    0.195871881905032  0.0000
  Ge     Ge        0.928164038424746    0.930843900784474    0.883118829011159  0.0000
  Si     Si        0.358579894680113    0.692458829127595    0.328006625943520  0.0000
  Si     Si        0.328756775647090    0.285348093539495    0.619389175101402  0.0000
  Si     Si        0.709837047660537    0.626563754994321    0.407548996385516  0.0000
  O3     O3        0.261684220440147    0.293626824983189    0.457508958809338  0.0000
  O1     O1        0.742973087135931    0.204120501704144    0.567324900590976  0.0000
  O3     O3        0.773016841336607    0.602933012399093    0.568935771686011  0.0000
  O3     O3        0.306562971451322    0.710980474155533    0.462985358229218  0.0000
  O3     O3        0.316521944596332    0.507833642731055    0.261450609657824  0.0000
  O1     O1        0.722335794937459    0.416644721265439    0.778869853997844  0.0000
  O1     O1        0.487604120318268    0.198587229799826    0.338507347963046  0.0000
  O3     O3        0.490129482337019    0.186209483061349    0.659297009196511  0.0000
  O1     O1        0.563374726019597    0.728315393994932    0.698178720150427  0.0000
  O2     O2        0.541012003943298    0.711236329956660    0.375783524061710  0.0000
  O1     O1        0.186259421769482    0.180511770455681    0.191676335435378  0.0000
  O1     O1        0.774149467030721    0.065142062810552    0.824040262423315  0.0000
  O1     O1        0.877082173364256    0.727209888783327    0.830854552438756  0.0000
  O3     O3        0.276856324383625    0.834558402767827    0.218900546121910  0.0000
  O3     O3        0.350950226471154    0.474718391628159    0.678144587187193  0.0000
  O3     O3        0.701767778145040    0.442072668983581    0.342984063513900  0.0000
  O3     O3        0.213248340136667    0.180186958191418    0.677117807625857  0.0000
  O1     O1        0.784016123733236    0.100511793895997    0.329722142319721  0.0000
  O3     O3        0.814566458003695    0.747790171600316    0.350876577316503  0.0000
  O1     O1        0.274766294317393    0.819949418966538    0.710029752576119  0.0000
  O1     O1        0.978719338993546    0.941654301977212    0.569742892568828  0.0000
  O1     O1        0.063824219080892    0.948877924929969    0.337643002647456  0.0000
  O1     O1        0.086127334360638    0.990001728758116    0.839536178074635  0.0000
  O1     O1        0.977553388256474    0.932399650732101    0.057321469517126  0.0000
