data_c00001.vasp
_audit_creation_method             Generated by GULP
_audit_author_name                 Salvador R. G. Balestra
_symmetry_space_group_name_H-M     'P 1             '
_symmetry_Int_Tables_number        1

loop_
_symmetry_equiv_pos_site_id
_symmetry_equiv_pos_as_xyz
_cell_length_a                        9.0274
_cell_length_b                        7.6666
_cell_length_c                       10.2485
_cell_angle_alpha                   90.3973
_cell_angle_beta                   107.3169
_cell_angle_gamma                   89.0445

loop_
_atom_site_label
_atom_site_type_symbol
_atom_site_fract_x
_atom_site_fract_y
_atom_site_fract_z
_atom_site_charge
  Ge     Ge        0.313819999999964    0.296860000000038    0.309830000000034  0.0000
  Ge     Ge        0.693001302651776    0.271711847082922    0.713908814894960  0.0000
  Si     Si        0.705103877965374    0.676947877885889    0.713537867981648  0.0000
  Si     Si        0.333274452492591    0.700671581089638    0.321899753477833  0.0000
  Si     Si        0.331150644642499    0.294204854667799    0.628139295780126  0.0000
  Si     Si        0.676277591149388    0.268302149821655    0.398035617286802  0.0000
  Si     Si        0.691084752602095    0.670983450914346    0.407084031025617  0.0000
  Si     Si        0.346117106763816    0.692800113008637    0.630358086488802  0.0000
  Si     Si        0.892331587302115    0.968920849190225    0.355371026608848  0.0000
  Si     Si        0.126708621447839    0.991156299163046    0.653030073985782  0.0000
  Si     Si        0.103668722980516    0.990606618457719    0.164953999658147  0.0000
  Si     Si        0.920012558144260    0.973828233798482    0.854545913830412  0.0000
  O3     O3        0.316138733468035    0.244053227066187    0.472994958389445  0.0000
  O3     O3        0.692342483741713    0.209726216466739    0.551684467441158  0.0000
  O2     O2        0.716507309461085    0.726783057278525    0.563840713560356  0.0000
  O2     O2        0.324746297072815    0.741729832100946    0.473774168760464  0.0000
  O3     O3        0.263400641092953    0.513672381253718    0.274044810908317  0.0000
  O3     O3        0.760282769421434    0.481078695192339    0.748701409468225  0.0000
  O3     O3        0.500734518677383    0.258607435224294    0.303107188850917  0.0000
  O3     O3        0.505192382024727    0.261576665132852    0.721597743478768  0.0000
  O2     O2        0.527238147934296    0.701552364189502    0.715175463866904  0.0000
  O2     O2        0.511896507276632    0.700901317039897    0.321437233138475  0.0000
  O3     O3        0.174931088226969    0.181166053933844    0.192377513246516  0.0000
  O3     O3        0.810696632274463    0.142565840528778    0.839034868871326  0.0000
  O2     O2        0.811846801893536    0.804890831144041    0.824322044210842  0.0000
  O2     O2        0.244153545090642    0.853703852733606    0.223831317761821  0.0000
  O2     O2        0.284287344343087    0.498083469886196    0.638465442793728  0.0000
  O2     O2        0.736426090822988    0.467473759036272    0.399528513561461  0.0000
  O2     O2        0.214333672731698    0.175300102840742    0.679612851544918  0.0000
  O2     O2        0.783147606707509    0.140146216067008    0.338388799770543  0.0000
  O2     O2        0.796483063313265    0.791168606664687    0.344615531772323  0.0000
  O2     O2        0.249888206619052    0.830427930705400    0.693076469855607  0.0000
  O2     O2        0.029504030247072    0.974685676830097    0.495593825690102  0.0000
  O2     O2        0.964991240494339    0.965521877846479    0.230931817622524  0.0000
  O2     O2        0.015748174574983    0.987303017517441    0.746745837827920  0.0000
  O2     O2        0.037873131716970    0.957542253445504    0.004358213491757  0.0000
