data_c00018.vasp
_audit_creation_method             Generated by GULP
_audit_author_name                 Salvador R. G. Balestra
_symmetry_space_group_name_H-M     'P 1             '
_symmetry_Int_Tables_number        1

loop_
_symmetry_equiv_pos_site_id
_symmetry_equiv_pos_as_xyz
_cell_length_a                        9.0650
_cell_length_b                        7.6543
_cell_length_c                       10.2811
_cell_angle_alpha                   90.9114
_cell_angle_beta                   107.7359
_cell_angle_gamma                   88.6289

loop_
_atom_site_label
_atom_site_type_symbol
_atom_site_fract_x
_atom_site_fract_y
_atom_site_fract_z
_atom_site_charge
  Ge     Ge        0.331050000000005    0.296920000000000    0.607380000000035  0.0000
  Ge     Ge        0.929334038161783    0.960171738142039    0.849754358717928  0.0000
  Si     Si        0.322950780306617    0.279722315633578    0.292501170418068  0.0000
  Si     Si        0.692115351365302    0.258173723750996    0.688890378568248  0.0000
  Si     Si        0.714178447777332    0.660367259362125    0.689184383979673  0.0000
  Si     Si        0.342341929666429    0.678170125900355    0.294410381159895  0.0000
  Si     Si        0.678752461859457    0.252188463566819    0.381146310223762  0.0000
  Si     Si        0.698400506005528    0.653219078298684    0.382766274836177  0.0000
  Si     Si        0.358760188380169    0.700393841239563    0.605302489199997  0.0000
  Si     Si        0.902857991166435    0.953475246629516    0.364927463252703  0.0000
  Si     Si        0.137055870863537    0.992973140859984    0.658154465160109  0.0000
  Si     Si        0.112155993592666    0.974916020110826    0.169081516797979  0.0000
  O3     O3        0.304393145581905    0.244356659312865    0.438740183476612  0.0000
  O2     O2        0.695444904723870    0.204586871061287    0.536938916294695  0.0000
  O2     O2        0.727342979864620    0.706171785978686    0.540460562587507  0.0000
  O2     O2        0.332256070168556    0.722322051995609    0.444393910939291  0.0000
  O2     O2        0.283006453802418    0.482218414846673    0.250895789717279  0.0000
  O2     O2        0.748577946198785    0.456366273883747    0.719160472506227  0.0000
  O2     O2        0.499064169953804    0.236750254626610    0.293410871031894  0.0000
  O3     O3        0.519775926330438    0.243921577697843    0.697642859484857  0.0000
  O2     O2        0.540016788845318    0.708347813460575    0.688896670553789  0.0000
  O2     O2        0.520213484241854    0.693104980493738    0.295783586272535  0.0000
  O2     O2        0.205472358325419    0.155398352124901    0.183360692290530  0.0000
  O3     O3        0.806112799140746    0.135920474863297    0.798124866907641  0.0000
  O3     O3        0.834906353981414    0.766251371658311    0.804160193916216  0.0000
  O2     O2        0.235282981469365    0.813326272249709    0.187323632441556  0.0000
  O3     O3        0.293142384427010    0.516207268626310    0.628799521964007  0.0000
  O2     O2        0.737588187730320    0.447899534979293    0.369467807035259  0.0000
  O3     O3        0.198019472998603    0.187613155868055    0.661222660499941  0.0000
  O2     O2        0.781548748641605    0.116514204000822    0.323307563574817  0.0000
  O2     O2        0.810605250624538    0.771413482002046    0.327096193452324  0.0000
  O2     O2        0.277862315170599    0.861015757042111    0.658929294919256  0.0000
  O2     O2        0.989303147089287    0.960568972939009    0.526391207309977  0.0000
  O2     O2        0.025864713820739    0.963822332545800    0.283828277498566  0.0000
  O3     O3        0.087922616824388    0.965710806594584    0.791993896833594  0.0000
  O3     O3        0.986950969865069    0.965724569392946    0.024614617885317  0.0000
