data_c00022.vasp
_audit_creation_method             Generated by GULP
_audit_author_name                 Salvador R. G. Balestra
_symmetry_space_group_name_H-M     'P 1             '
_symmetry_Int_Tables_number        1

loop_
_symmetry_equiv_pos_site_id
_symmetry_equiv_pos_as_xyz
_cell_length_a                        9.0843
_cell_length_b                        7.6749
_cell_length_c                       10.1675
_cell_angle_alpha                   90.0000
_cell_angle_beta                   106.1173
_cell_angle_gamma                   90.0000

loop_
_atom_site_label
_atom_site_type_symbol
_atom_site_fract_x
_atom_site_fract_y
_atom_site_fract_z
_atom_site_charge
  Ge     Ge        0.093070000000012    0.000000000000000    0.158230000000003  0.0000
  Ge     Ge        0.890027891486174    0.999999999969185    0.838390235656306  0.0000
  Si     Si        0.315352262569718    0.299335098578149    0.316269758608426  0.0000
  Si     Si        0.666554571583822    0.299494347447215    0.714260041158975  0.0000
  Si     Si        0.666554571624857    0.700505652442582    0.714260041159393  0.0000
  Si     Si        0.315352262622213    0.700664901444415    0.316269758612707  0.0000
  Si     Si        0.313017590111608    0.300479788772307    0.622662176501688  0.0000
  Si     Si        0.668132675972166    0.298168917249895    0.407961148800972  0.0000
  Si     Si        0.668132676022813    0.701831082559973    0.407961148798169  0.0000
  Si     Si        0.313017590152461    0.699520211263957    0.622662176507232  0.0000
  Si     Si        0.872480431180987    0.999999999897056    0.344745508280331  0.0000
  Si     Si        0.099380143208589    0.000000000015203    0.632706220892659  0.0000
  O2     O2        0.291084193241783    0.256355901284209    0.463881175110990  0.0000
  O2     O2        0.692127238574386    0.251478780069074    0.566913346195430  0.0000
  O2     O2        0.692127238618949    0.748521219749190    0.566913346192877  0.0000
  O2     O2        0.291084193297505    0.743644098765086    0.463881175121228  0.0000
  O2     O2        0.274901081886170    0.500000000012218    0.278064736084222  0.0000
  O2     O2        0.710474748134441    0.499999999942494    0.749792130077692  0.0000
  O2     O2        0.492625875234081    0.263831068247574    0.323234212017582  0.0000
  O2     O2        0.488684867656217    0.268961079121910    0.707315445286087  0.0000
  O2     O2        0.488684867707284    0.731038920843968    0.707315445293264  0.0000
  O2     O2        0.492625875298415    0.736168931665991    0.323234212012022  0.0000
  O3     O3        0.204392416314544    0.183259736344881    0.203752716258437  0.0000
  O3     O3        0.773093284392036    0.180997147878792    0.828561847246735  0.0000
  O3     O3        0.773093284467544    0.819002852010957    0.828561847235175  0.0000
  O3     O3        0.204392416420809    0.816740263731610    0.203752716275605  0.0000
  O2     O2        0.265227077461632    0.500000000030507    0.640864901324652  0.0000
  O2     O2        0.712455262921670    0.499999999889524    0.392560046928625  0.0000
  O2     O2        0.204836451143412    0.171988579831925    0.678750921188398  0.0000
  O2     O2        0.774691867475114    0.174492209581725    0.347090463865115  0.0000
  O2     O2        0.774691867584421    0.825507790138273    0.347090463877739  0.0000
  O2     O2        0.204836451217336    0.828011420250983    0.678750921221449  0.0000
  O2     O2        0.028023626240257    0.999999999953638    0.468376270291055  0.0000
  O3     O3        0.926447753224157    0.999999999921763    0.208458808223577  0.0000
  O3     O3        0.963442133497796    0.000000000029098    0.699737252124359  0.0000
  O1     O1        0.035285539521635    0.999999999980178    0.983245492687676  0.0000
