data_c00010.vasp
_audit_creation_method             Generated by GULP
_audit_author_name                 Salvador R. G. Balestra
_symmetry_space_group_name_H-M     'P 1             '
_symmetry_Int_Tables_number        1

loop_
_symmetry_equiv_pos_site_id
_symmetry_equiv_pos_as_xyz
_cell_length_a                        9.0493
_cell_length_b                        7.6362
_cell_length_c                       10.2737
_cell_angle_alpha                   88.9888
_cell_angle_beta                   107.9986
_cell_angle_gamma                   88.6399

loop_
_atom_site_label
_atom_site_type_symbol
_atom_site_fract_x
_atom_site_fract_y
_atom_site_fract_z
_atom_site_charge
  Ge     Ge        0.313819999999964    0.296860000000038    0.309830000000034  0.0000
  Ge     Ge        0.104859169825326    0.989107648902677    0.162134364458171  0.0000
  Si     Si        0.694048778632337    0.235815198795910    0.712197832986515  0.0000
  Si     Si        0.719378862241112    0.634159912832568    0.723403880033355  0.0000
  Si     Si        0.352438461187309    0.698835735362735    0.330309191563659  0.0000
  Si     Si        0.337767764043116    0.272525654361252    0.627877008950710  0.0000
  Si     Si        0.678552546416312    0.245934977147767    0.401915030534521  0.0000
  Si     Si        0.708326833834340    0.642836339398794    0.416041337619820  0.0000
  Si     Si        0.364059608438067    0.671180848101082    0.639757987018762  0.0000
  Si     Si        0.899723774332246    0.947353758659899    0.357542094264843  0.0000
  Si     Si        0.137883712245698    0.968594398881288    0.650462244564621  0.0000
  Si     Si        0.927775409890738    0.935899980121791    0.844569575349809  0.0000
  O3     O3        0.304774499505438    0.235780703621250    0.469601785153413  0.0000
  O2     O2        0.696624818212197    0.196643623253665    0.559588177641791  0.0000
  O2     O2        0.733155496780779    0.680579211513187    0.574590463094635  0.0000
  O2     O2        0.345537105862234    0.722356000379460    0.483859791052908  0.0000
  O3     O3        0.274715565184425    0.518040350118999    0.275486764873075  0.0000
  O2     O2        0.758580617213645    0.428224885468220    0.758632477989633  0.0000
  O3     O3        0.501389492423938    0.243650930235356    0.309998843317895  0.0000
  O2     O2        0.517056854345465    0.224647742373646    0.712864922297697  0.0000
  O2     O2        0.545504499713937    0.679267766004806    0.727633497843686  0.0000
  O2     O2        0.530816160228480    0.689459618516482    0.330301495505770  0.0000
  O1     O1        0.170817637858419    0.197048906078324    0.188790886121677  0.0000
  O2     O2        0.799485826506984    0.094325422064981    0.820076484375175  0.0000
  O2     O2        0.841155724141728    0.750921570693114    0.831753774101223  0.0000
  O3     O3        0.270197122270687    0.862668957629749    0.239725524021715  0.0000
  O2     O2        0.301994863183749    0.476350911997524    0.649905665086360  0.0000
  O2     O2        0.746247017639488    0.439713618656371    0.395397610723227  0.0000
  O2     O2        0.227086173584826    0.151072475692563    0.685294503211061  0.0000
  O2     O2        0.778896132117320    0.108345545821093    0.346556446245744  0.0000
  O2     O2        0.822005734241166    0.761291896124209    0.363094579403721  0.0000
  O2     O2        0.262936372076472    0.806871592245147    0.697263002497342  0.0000
  O2     O2        0.051326134710795    0.964111125115413    0.488428520219133  0.0000
  O3     O3        0.951929577849771    0.950003099231506    0.223461637196118  0.0000
  O2     O2        0.015249585040064    0.955193655046338    0.731621281204258  0.0000
  O3     O3        0.049881272251288    0.943515653102895    0.991382669866339  0.0000
