data_c00012.vasp
_audit_creation_method             Generated by GULP
_audit_author_name                 Salvador R. G. Balestra
_symmetry_space_group_name_H-M     'P 1             '
_symmetry_Int_Tables_number        1

loop_
_symmetry_equiv_pos_site_id
_symmetry_equiv_pos_as_xyz
_cell_length_a                        9.1165
_cell_length_b                        7.6719
_cell_length_c                       10.3591
_cell_angle_alpha                   90.0108
_cell_angle_beta                   108.9851
_cell_angle_gamma                   89.9826

loop_
_atom_site_label
_atom_site_type_symbol
_atom_site_fract_x
_atom_site_fract_y
_atom_site_fract_z
_atom_site_charge
  Ge     Ge        0.331050000000005    0.296920000000000    0.607380000000035  0.0000
  Ge     Ge        0.668429733852758    0.296372572918224    0.372421239535616  0.0000
  Si     Si        0.307379671993258    0.292065556266502    0.292141153041362  0.0000
  Si     Si        0.692093523739035    0.291766036742551    0.687630514400858  0.0000
  Si     Si        0.689998518677761    0.693719822910196    0.684603194615495  0.0000
  Si     Si        0.310014123397703    0.693957283306626    0.295203341702871  0.0000
  Si     Si        0.669378497902676    0.700965582825139    0.379540517194431  0.0000
  Si     Si        0.330663985104013    0.701542039617434    0.600306573188166  0.0000
  Si     Si        0.880518789049345    0.995911648584353    0.337843981445771  0.0000
  Si     Si        0.119244003946342    0.996414584739505    0.642111627935498  0.0000
  Si     Si        0.089787889442482    0.989372919535920    0.148809367743238  0.0000
  Si     Si        0.910041222093085    0.989221353152935    0.831128845284660  0.0000
  O3     O3        0.311940108182222    0.236995452340071    0.442499231206397  0.0000
  O3     O3        0.687461345865039    0.236483523050480    0.537278586456890  0.0000
  O2     O2        0.699356080043176    0.749583576735663    0.537715994025224  0.0000
  O2     O2        0.300695997032986    0.749929691571334    0.442101759409283  0.0000
  O2     O2        0.253922622609289    0.494429207038093    0.264145361364325  0.0000
  O2     O2        0.745749246990399    0.494052548977588    0.715570799053112  0.0000
  O3     O3        0.475627121752082    0.271182771006844    0.277008759717790  0.0000
  O3     O3        0.523828984863245    0.271285134370643    0.702779397260917  0.0000
  O2     O2        0.513856269882499    0.710879128970240    0.683670270775027  0.0000
  O2     O2        0.486191666864374    0.710598027440708    0.296172532255509  0.0000
  O2     O2        0.184190398725159    0.169577155750290    0.184635848522192  0.0000
  O2     O2        0.815183656573574    0.169162508294566    0.795130968935252  0.0000
  O2     O2        0.795866300785719    0.822912051528711    0.797852831815201  0.0000
  O2     O2        0.204444538976991    0.823403924795535    0.181965196827681  0.0000
  O3     O3        0.271470210944511    0.509519293447288    0.612467933010282  0.0000
  O3     O3        0.728372002397353    0.508795339488888    0.367455992664915  0.0000
  O3     O3        0.211925697939193    0.176155608027197    0.670427000437512  0.0000
  O3     O3        0.787253679367443    0.175308604577069    0.309169552228634  0.0000
  O2     O2        0.757240536320639    0.839592588795901    0.316373217741492  0.0000
  O2     O2        0.243030565864234    0.840565858319605    0.663441788754016  0.0000
  O2     O2        0.999649584751995    0.995499036630245    0.490079350316800  0.0000
  O2     O2        0.967801151060884    0.970594724565096    0.229022359412540  0.0000
  O2     O2        0.032485099082949    0.970924315371897    0.751311922315775  0.0000
  O2     O2        0.999690908030504    0.988859498077174    0.990012625276173  0.0000
