data_c00011.vasp
_audit_creation_method             Generated by GULP
_audit_author_name                 Salvador R. G. Balestra
_symmetry_space_group_name_H-M     'P 1             '
_symmetry_Int_Tables_number        1

loop_
_symmetry_equiv_pos_site_id
_symmetry_equiv_pos_as_xyz
_cell_length_a                        9.0753
_cell_length_b                        7.6742
_cell_length_c                       10.2337
_cell_angle_alpha                   88.9824
_cell_angle_beta                   107.3079
_cell_angle_gamma                   89.6575

loop_
_atom_site_label
_atom_site_type_symbol
_atom_site_fract_x
_atom_site_fract_y
_atom_site_fract_z
_atom_site_charge
  Ge     Ge        0.313819999999964    0.296860000000038    0.309830000000034  0.0000
  Ge     Ge        0.912842522091710    0.965281049818455    0.872247056522528  0.0000
  Si     Si        0.682360757929434    0.267424938821748    0.708330932229459  0.0000
  Si     Si        0.695129980010616    0.668282888207554    0.716655781649356  0.0000
  Si     Si        0.329188569932122    0.701395562329439    0.321712354954578  0.0000
  Si     Si        0.328614353064567    0.283083517240000    0.626364843185533  0.0000
  Si     Si        0.676127508520431    0.281836518306743    0.400854372996397  0.0000
  Si     Si        0.686273265129516    0.682300617663205    0.410767617549093  0.0000
  Si     Si        0.340107529709500    0.684050283626838    0.630972544943149  0.0000
  Si     Si        0.896793669098606    0.983229433881859    0.391900466652664  0.0000
  Si     Si        0.131615322396555    0.981477000269922    0.685809837946122  0.0000
  Si     Si        0.098186793446015    0.995123583427402    0.188266910405692  0.0000
  O3     O3        0.298375984212208    0.240002511519202    0.468875442095924  0.0000
  O2     O2        0.687853641845960    0.225352970430004    0.556236866303262  0.0000
  O2     O2        0.712437948103527    0.725668767650777    0.569391012685327  0.0000
  O2     O2        0.314812375781221    0.733118066337830    0.472756389295513  0.0000
  O3     O3        0.266947582560598    0.513414323793279    0.271555086274134  0.0000
  O2     O2        0.735663443808565    0.464640714176742    0.744854650573859  0.0000
  O3     O3        0.501864602373381    0.262387117826794    0.308182181978588  0.0000
  O2     O2        0.506650238548470    0.244765833269585    0.710315004095464  0.0000
  O2     O2        0.519253826018771    0.705144019119396    0.715714669511825  0.0000
  O2     O2        0.508009835451409    0.715815491400408    0.326043560220278  0.0000
  O3     O3        0.183338056571598    0.177800761836127    0.189485413531060  0.0000
  O3     O3        0.792731370103495    0.142400408500158    0.818497661206631  0.0000
  O3     O3        0.812065027059251    0.774926315073048    0.831694520624981  0.0000
  O2     O2        0.233157231177950    0.848061034828004    0.217987266940282  0.0000
  O2     O2        0.286751935119632    0.485399549268175    0.642977316173730  0.0000
  O2     O2        0.730772048422226    0.481746443262320    0.393935921199310  0.0000
  O2     O2        0.223339223125907    0.160865873876775    0.689383858205349  0.0000
  O2     O2        0.789592051345826    0.156327911281801    0.350199616841548  0.0000
  O2     O2        0.792706246644490    0.810391275383503    0.353017661898081  0.0000
  O2     O2        0.239781366910561    0.812835577858821    0.691863158188863  0.0000
  O2     O2        0.982025209163024    0.979083945300902    0.553688700063996  0.0000
  O2     O2        0.019843560050901    0.986399836729515    0.309836629549906  0.0000
  O3     O3        0.074496836393444    0.973652223051156    0.818180488406946  0.0000
  O3     O3        0.970370631644562    0.966458394678813    0.047864939896943  0.0000
