data_c00016.vasp
_audit_creation_method             Generated by GULP
_audit_author_name                 Salvador R. G. Balestra
_symmetry_space_group_name_H-M     'P 1             '
_symmetry_Int_Tables_number        1

loop_
_symmetry_equiv_pos_site_id
_symmetry_equiv_pos_as_xyz
_cell_length_a                        9.0980
_cell_length_b                        7.6433
_cell_length_c                       10.3284
_cell_angle_alpha                   91.2635
_cell_angle_beta                   109.5701
_cell_angle_gamma                   88.2949

loop_
_atom_site_label
_atom_site_type_symbol
_atom_site_fract_x
_atom_site_fract_y
_atom_site_fract_z
_atom_site_charge
  Ge     Ge        0.331050000000005    0.296920000000000    0.607380000000035  0.0000
  Ge     Ge        0.132754310900723    0.989672385035158    0.657268924737709  0.0000
  Si     Si        0.305088883395672    0.273358872599085    0.291861566679213  0.0000
  Si     Si        0.693868037759719    0.253129616219845    0.683969486780721  0.0000
  Si     Si        0.721327096281199    0.649212934879514    0.683136777184510  0.0000
  Si     Si        0.326309957967895    0.676409533297033    0.293708076620141  0.0000
  Si     Si        0.660541979907082    0.244059337521654    0.369333563187424  0.0000
  Si     Si        0.684423444547169    0.641260572131122    0.371183199269416  0.0000
  Si     Si        0.362654835227468    0.701427424777490    0.604830921376168  0.0000
  Si     Si        0.883960638412875    0.941784084556940    0.351276528715722  0.0000
  Si     Si        0.091771480557555    0.969915421829108    0.159267618486614  0.0000
  Si     Si        0.926743220057100    0.952796357009377    0.843052177837014  0.0000
  O3     O3        0.298229638571536    0.229049202625864    0.439536897749900  0.0000
  O2     O2        0.684281825359337    0.209307276235976    0.527966419446414  0.0000
  O2     O2        0.727900735275987    0.685250309408006    0.532460103838418  0.0000
  O2     O2        0.323698770814212    0.737481574905686    0.442823412971408  0.0000
  O2     O2        0.264672832190389    0.478927444875907    0.260150531817255  0.0000
  O2     O2        0.763705814137641    0.447076989358691    0.723594502648599  0.0000
  O2     O2        0.477250519207585    0.229408130210168    0.284007990684254  0.0000
  O3     O3        0.525042412437545    0.246274264416869    0.697777097127111  0.0000
  O2     O2        0.548055317153959    0.692820709516585    0.683151903937785  0.0000
  O2     O2        0.502282794960867    0.685166447085200    0.291464865441506  0.0000
  O2     O2        0.180626225006092    0.153438678953445    0.180614314068421  0.0000
  O2     O2        0.810956746856862    0.115539423509479    0.781779307303681  0.0000
  O2     O2        0.843387876407409    0.769101109212305    0.792980951344716  0.0000
  O2     O2        0.215938857383905    0.808084848973985    0.182042395552091  0.0000
  O3     O3        0.292257258027563    0.517184921196310    0.619633398486699  0.0000
  O2     O2        0.719825732085724    0.436415700687986    0.350452311237882  0.0000
  O1     O1        0.200381111092087    0.196741740719982    0.663555486644404  0.0000
  O2     O2        0.759579665876444    0.103925940023058    0.313671722263082  0.0000
  O2     O2        0.790535268068498    0.759746154686962    0.312664702541418  0.0000
  O3     O3        0.293623484409729    0.856305694727149    0.671490220185229  0.0000
  O3     O3        0.979684891408396    0.944493271235722    0.511439071527929  0.0000
  O2     O2        0.996843369328705    0.955237432995570    0.263545317128033  0.0000
  O3     O3        0.077804696898090    0.961533202039058    0.798984729313722  0.0000
  O2     O2        0.972213096386331    0.961748695367176    0.006386032656473  0.0000
