data_c00003.vasp
_audit_creation_method             Generated by GULP
_audit_author_name                 Salvador R. G. Balestra
_symmetry_space_group_name_H-M     'P 1             '
_symmetry_Int_Tables_number        1

loop_
_symmetry_equiv_pos_site_id
_symmetry_equiv_pos_as_xyz
_cell_length_a                        8.9854
_cell_length_b                        7.6379
_cell_length_c                       10.1969
_cell_angle_alpha                   89.3787
_cell_angle_beta                   107.2541
_cell_angle_gamma                   91.4461

loop_
_atom_site_label
_atom_site_type_symbol
_atom_site_fract_x
_atom_site_fract_y
_atom_site_fract_z
_atom_site_charge
  Ge     Ge        0.313819999999964    0.296860000000038    0.309830000000034  0.0000
  Ge     Ge        0.281731440224884    0.712668879643159    0.299845380614121  0.0000
  Si     Si        0.684450115230229    0.349311359751034    0.704201290419525  0.0000
  Si     Si        0.661870944485785    0.745733854785255    0.696844588465781  0.0000
  Si     Si        0.329740090133113    0.308342258861685    0.624781248017048  0.0000
  Si     Si        0.675187469309871    0.354190946457186    0.392695730689439  0.0000
  Si     Si        0.648971078465346    0.752083584407491    0.385032539434574  0.0000
  Si     Si        0.304714636972698    0.714070566638442    0.615352682276305  0.0000
  Si     Si        0.881437611015355    0.050002300201139    0.374266962237394  0.0000
  Si     Si        0.112820679866596    0.012825183005035    0.674143071767058  0.0000
  Si     Si        0.072716604559241    0.012527709771221    0.161397043399624  0.0000
  Si     Si        0.888735563888405    0.042793348269315    0.852109976758096  0.0000
  O3     O3        0.310348543469154    0.239282615182492    0.473317445303464  0.0000
  O2     O2        0.682058282618593    0.311767755426264    0.549463975919899  0.0000
  O2     O2        0.663513690627850    0.793056037949499    0.543401909166277  0.0000
  O3     O3        0.273284952587442    0.775787286062998    0.459959066311843  0.0000
  O1     O1        0.235245884678670    0.497957632481513    0.269875834281732  0.0000
  O2     O2        0.730134799699090    0.552759872947699    0.740912707193720  0.0000
  O3     O3        0.502964097315059    0.307870358612802    0.300655741885197  0.0000
  O2     O2        0.511288626686862    0.307152537097570    0.714889308529998  0.0000
  O2     O2        0.484767380787769    0.749891750333425    0.701511997347485  0.0000
  O3     O3        0.470599717952114    0.759911087074636    0.295979881853111  0.0000
  O3     O3        0.218919405378851    0.146142461061069    0.189477676675396  0.0000
  O2     O2        0.810470738420517    0.229550299186358    0.807407319228255  0.0000
  O2     O2        0.762943790352904    0.886494277287529    0.802244762178688  0.0000
  O3     O3        0.142107319378492    0.821157610055416    0.175504616295854  0.0000
  O2     O2        0.265228045947600    0.505900609979308    0.618415697660991  0.0000
  O2     O2        0.714702882621759    0.558950075889659    0.374194649841039  0.0000
  O2     O2        0.233401694316987    0.177293085374378    0.695403011407319  0.0000
  O2     O2        0.800728996702203    0.238418619038195    0.351647328706460  0.0000
  O2     O2        0.752189559453573    0.893790770958717    0.330822833647722  0.0000
  O2     O2        0.198268758271929    0.827412998803839    0.683581330126371  0.0000
  O2     O2        0.977310019894852    0.026794352856674    0.532184450159720  0.0000
  O2     O2        0.993943520472512    0.050030960136525    0.280521836078777  0.0000
  O2     O2        0.036959156826445    0.016884580081338    0.797713728251602  0.0000
  O2     O2        0.946050299548112    0.040571892342792    0.015964872692149  0.0000
