data_c00008.vasp
_audit_creation_method             Generated by GULP
_audit_author_name                 Salvador R. G. Balestra
_symmetry_space_group_name_H-M     'P 1             '
_symmetry_Int_Tables_number        1

loop_
_symmetry_equiv_pos_site_id
_symmetry_equiv_pos_as_xyz
_cell_length_a                        9.1336
_cell_length_b                        7.6405
_cell_length_c                       10.3253
_cell_angle_alpha                   89.3239
_cell_angle_beta                   109.7224
_cell_angle_gamma                   88.8153

loop_
_atom_site_label
_atom_site_type_symbol
_atom_site_fract_x
_atom_site_fract_y
_atom_site_fract_z
_atom_site_charge
  Ge     Ge        0.313819999999964    0.296860000000038    0.309830000000034  0.0000
  Ge     Ge        0.906328489698631    0.958685161512411    0.353074572402166  0.0000
  Si     Si        0.714842933826567    0.243437957223015    0.705002881353189  0.0000
  Si     Si        0.735969358666086    0.646565323001018    0.716711147127266  0.0000
  Si     Si        0.349200294222380    0.699672125362841    0.327284603416295  0.0000
  Si     Si        0.356067645616120    0.278526540560296    0.632093679686235  0.0000
  Si     Si        0.678716015996552    0.252708327664153    0.394595016157620  0.0000
  Si     Si        0.704041922774377    0.657929870628289    0.407209126621087  0.0000
  Si     Si        0.380743318654365    0.673499024398250    0.643076908222239  0.0000
  Si     Si        0.160398267719347    0.974267052406653    0.658683214104309  0.0000
  Si     Si        0.108552128014848    0.992020679993296    0.162058094480916  0.0000
  Si     Si        0.948773145833768    0.945649018226694    0.846899415654498  0.0000
  O3     O3        0.299840028593158    0.256063676934327    0.469461313097806  0.0000
  O2     O2        0.722012364397662    0.196582595236538    0.555459868976019  0.0000
  O2     O2        0.745865013398275    0.699199524278847    0.568617215959500  0.0000
  O2     O2        0.344285734462752    0.703548244899780    0.481469404858541  0.0000
  O3     O3        0.282218335973792    0.516758351632514    0.264214254855550  0.0000
  O2     O2        0.773362478346304    0.439801715660428    0.747342538820251  0.0000
  O3     O3        0.497414586990908    0.233158537633454    0.314248579845673  0.0000
  O2     O2        0.538331349630481    0.226007859243698    0.700370384556832  0.0000
  O2     O2        0.564815793707155    0.693332965076523    0.721867617966695  0.0000
  O2     O2        0.525293218148175    0.717326799289912    0.328911637579550  0.0000
  O3     O3        0.168093968884557    0.187973429929644    0.190936084497660  0.0000
  O2     O2        0.823604440339961    0.106397784882065    0.816170528726507  0.0000
  O2     O2        0.861502099978269    0.760995628351987    0.828034255930556  0.0000
  O2     O2        0.254553555950590    0.865933825780405    0.244734381119257  0.0000
  O2     O2        0.329266955518080    0.478909695551312    0.668961405838046  0.0000
  O2     O2        0.725974747683538    0.453050398495653    0.386001589321046  0.0000
  O2     O2        0.255695338796696    0.153776308064408    0.694833229203626  0.0000
  O3     O3        0.776299994731865    0.131627664698200    0.329116544178874  0.0000
  O3     O3        0.816969929975943    0.761637192065143    0.349594024143405  0.0000
  O2     O2        0.283501473238573    0.810675433458843    0.699693009112980  0.0000
  O3     O3        0.065722473357424    0.974735335356173    0.497930911337390  0.0000
  O3     O3        0.963788867600613    0.958795840657110    0.210797463387831  0.0000
  O2     O2        0.047622938161598    0.961174672757398    0.746221827898026  0.0000
  O2     O2        0.063359869322520    0.953055640419882    0.001545503843615  0.0000
