data_c00006.vasp
_audit_creation_method             Generated by GULP
_audit_author_name                 Salvador R. G. Balestra
_symmetry_space_group_name_H-M     'P 1             '
_symmetry_Int_Tables_number        1

loop_
_symmetry_equiv_pos_site_id
_symmetry_equiv_pos_as_xyz
_cell_length_a                        9.0533
_cell_length_b                        7.6510
_cell_length_c                       10.0891
_cell_angle_alpha                   86.2460
_cell_angle_beta                   108.3797
_cell_angle_gamma                   91.0620

loop_
_atom_site_label
_atom_site_type_symbol
_atom_site_fract_x
_atom_site_fract_y
_atom_site_fract_z
_atom_site_charge
  Ge     Ge        0.313819999999964    0.296860000000038    0.309830000000034  0.0000
  Ge     Ge        0.647401244785145    0.745576841523503    0.392357231237625  0.0000
  Si     Si        0.677366981065806    0.314076948081825    0.704357862975781  0.0000
  Si     Si        0.674442609152642    0.701899482085482    0.716899949781227  0.0000
  Si     Si        0.281447460673731    0.709398123957947    0.313102644778993  0.0000
  Si     Si        0.330820679127903    0.267286133550557    0.632266449519178  0.0000
  Si     Si        0.664583129624350    0.349232965778973    0.386115644010502  0.0000
  Si     Si        0.312951687546783    0.670758130389358    0.630423988704705  0.0000
  Si     Si        0.879658196003735    0.041991981815121    0.379305006985483  0.0000
  Si     Si        0.117317003696325    0.964416879850695    0.681203263592992  0.0000
  Si     Si        0.070635009724943    0.022380132620218    0.169579859804634  0.0000
  Si     Si        0.893148627977119    0.995707906656343    0.853423769102997  0.0000
  O3     O3        0.300961800204634    0.226445186743546    0.472266019442590  0.0000
  O2     O2        0.640603251694480    0.356208357464492    0.538949981691982  0.0000
  O3     O3        0.700007501383640    0.761903768013056    0.570958038451081  0.0000
  O2     O2        0.267624417639985    0.728445369858003    0.467160988139920  0.0000
  O3     O3        0.255716341644115    0.512243635511398    0.270976250808717  0.0000
  O2     O2        0.729587409009952    0.501281633089188    0.771257184877648  0.0000
  O3     O3        0.498856054923679    0.279010040601927    0.294984447172630  0.0000
  O2     O2        0.513920984205773    0.245577094406695    0.722217319576773  0.0000
  O2     O2        0.493286514227115    0.714567887126565    0.704589295151433  0.0000
  O3     O3        0.450495651291703    0.777909617226516    0.315987046457509  0.0000
  O3     O3        0.201505183769829    0.168031926455563    0.183285422447086  0.0000
  O2     O2        0.810174848687834    0.171381358112587    0.768345683987493  0.0000
  O2     O2        0.775169669817656    0.832445455110446    0.829658523400729  0.0000
  O2     O2        0.148006170516553    0.830217780280511    0.205632984633123  0.0000
  O2     O2        0.277764482971619    0.464318934364786    0.646722802139045  0.0000
  O3     O3        0.696743119161372    0.547305946863068    0.344208743130223  0.0000
  O2     O2        0.232395225587402    0.130135022661753    0.697444069015899  0.0000
  O2     O2        0.807918196176453    0.230677951908514    0.387486597993544  0.0000
  O3     O3        0.743096701489228    0.905107613686957    0.323694348309652  0.0000
  O2     O2        0.210806219582797    0.782201444007618    0.699171405072774  0.0000
  O2     O2        0.982406246280748    0.973381514233670    0.533699132580623  0.0000
  O2     O2        0.981498733883233    0.070609902442015    0.277104972610815  0.0000
  O2     O2        0.042600768137009    0.958404353233559    0.805921321435409  0.0000
  O2     O2        0.947148379178461    0.028271019081262    0.016166443980184  0.0000
