data_c00007.vasp
_audit_creation_method             Generated by GULP
_audit_author_name                 Salvador R. G. Balestra
_symmetry_space_group_name_H-M     'P 1             '
_symmetry_Int_Tables_number        1

loop_
_symmetry_equiv_pos_site_id
_symmetry_equiv_pos_as_xyz
_cell_length_a                        9.0683
_cell_length_b                        7.6761
_cell_length_c                       10.2674
_cell_angle_alpha                   88.5893
_cell_angle_beta                   108.2450
_cell_angle_gamma                   90.1441

loop_
_atom_site_label
_atom_site_type_symbol
_atom_site_fract_x
_atom_site_fract_y
_atom_site_fract_z
_atom_site_charge
  Ge     Ge        0.313819999999964    0.296860000000038    0.309830000000034  0.0000
  Ge     Ge        0.340187583036481    0.689255356285215    0.632676024876259  0.0000
  Si     Si        0.690365654849119    0.280358119870372    0.705373188342564  0.0000
  Si     Si        0.702483087424705    0.675785093418471    0.715443712010269  0.0000
  Si     Si        0.319826303013088    0.707252583796399    0.320358965783418  0.0000
  Si     Si        0.332198361371768    0.281346608964379    0.621203639689346  0.0000
  Si     Si        0.677191683188490    0.294673162428795    0.395866320674050  0.0000
  Si     Si        0.676981113490980    0.691699781809737    0.402713471600962  0.0000
  Si     Si        0.891977923058533    0.993158975607908    0.378643811468201  0.0000
  Si     Si        0.129900367122025    0.984756115152218    0.681101743774334  0.0000
  Si     Si        0.092690428707544    0.999583721597437    0.174139831137324  0.0000
  Si     Si        0.911735029200885    0.978928438013935    0.861148000822327  0.0000
  O3     O3        0.306885977445288    0.221683626278132    0.467536907727570  0.0000
  O2     O2        0.690823475049858    0.242010633307375    0.552328693998644  0.0000
  O2     O2        0.696037412872002    0.727895641766275    0.560683747199196  0.0000
  O3     O3        0.315641892233648    0.765498247594632    0.467986617987126  0.0000
  O3     O3        0.258835275173479    0.512904627489962    0.289303806845708  0.0000
  O2     O2        0.755542853408306    0.473733528827161    0.748369385692981  0.0000
  O3     O3        0.500951577099961    0.273252977144479    0.302913485150586  0.0000
  O2     O2        0.514639255693508    0.269887312627971    0.708388795443197  0.0000
  O3     O3        0.533478050448940    0.702313411189941    0.728943178383070  0.0000
  O2     O2        0.496717602853706    0.715675529402204    0.315592953728192  0.0000
  O3     O3        0.184932455413294    0.179071425718115    0.184997444572209  0.0000
  O2     O2        0.791963034898423    0.138462052738741    0.810832814681605  0.0000
  O2     O2        0.827546400049525    0.795046683602115    0.819415861587604  0.0000
  O2     O2        0.217042932222949    0.841995462717926    0.206467016227091  0.0000
  O3     O3        0.275386178117959    0.477123428968151    0.623801659096348  0.0000
  O2     O2        0.730656459630470    0.495016295335515    0.386545379009550  0.0000
  O2     O2        0.240054384645378    0.151331590840579    0.691777173714656  0.0000
  O2     O2        0.791582417217136    0.171152975414540    0.347615732777948  0.0000
  O2     O2        0.779255399378723    0.826106730834127    0.346370973378917  0.0000
  O3     O3        0.230730598119876    0.810095135255004    0.706447159781173  0.0000
  O2     O2        0.997031936749829    0.980659099185610    0.535480117380323  0.0000
  O2     O2        0.996392652395178    0.992386701467853    0.280687034877753  0.0000
  O2     O2        0.054025175629866    0.001366163378803    0.801431688018511  0.0000
  O2     O2        0.973536966396425    0.979983440890640    0.024104507620655  0.0000
