data_c00004.vasp
_audit_creation_method             Generated by GULP
_audit_author_name                 Salvador R. G. Balestra
_symmetry_space_group_name_H-M     'P 1             '
_symmetry_Int_Tables_number        1

loop_
_symmetry_equiv_pos_site_id
_symmetry_equiv_pos_as_xyz
_cell_length_a                        9.0858
_cell_length_b                        7.6872
_cell_length_c                       10.2050
_cell_angle_alpha                   88.5640
_cell_angle_beta                   108.5027
_cell_angle_gamma                   89.3430

loop_
_atom_site_label
_atom_site_type_symbol
_atom_site_fract_x
_atom_site_fract_y
_atom_site_fract_z
_atom_site_charge
  Ge     Ge        0.313819999999964    0.296860000000038    0.309830000000034  0.0000
  Ge     Ge        0.337787333148383    0.281304537039431    0.635104290643997  0.0000
  Si     Si        0.694220202005814    0.274408418005155    0.711491921526831  0.0000
  Si     Si        0.707618715958061    0.667896382785444    0.717218186347798  0.0000
  Si     Si        0.325570426391321    0.705768696560749    0.322750455365027  0.0000
  Si     Si        0.670883557760710    0.293000450991235    0.394116178910894  0.0000
  Si     Si        0.684798302214418    0.687303303913479    0.405418298298185  0.0000
  Si     Si        0.348227478471372    0.688950967736326    0.633461322131358  0.0000
  Si     Si        0.895043313292336    0.987591023689008    0.384653403558327  0.0000
  Si     Si        0.137243222874911    0.979279030683161    0.687452795814532  0.0000
  Si     Si        0.093710473961583    0.002346058557148    0.178266141127429  0.0000
  Si     Si        0.919233524868359    0.962892445842221    0.864128548019650  0.0000
  O1     O1        0.305734749786342    0.225282690635008    0.467574543986341  0.0000
  O2     O2        0.659007336941636    0.258247740404641    0.547090473646381  0.0000
  O2     O2        0.719936573790559    0.720867900103013    0.567537616514167  0.0000
  O2     O2        0.318196515552449    0.748119576991288    0.474427985419478  0.0000
  O3     O3        0.264054161713561    0.515406890293196    0.283175748043227  0.0000
  O2     O2        0.759839798400729    0.466722852852242    0.756609239616374  0.0000
  O3     O3        0.497807063684479    0.270575868447162    0.294436147504067  0.0000
  O3     O3        0.530423697559030    0.247974324582812    0.734670064521753  0.0000
  O2     O2        0.531542325057270    0.692209838929109    0.716276522448272  0.0000
  O2     O2        0.503302933719946    0.720493081043963    0.323867030217327  0.0000
  O3     O3        0.180388833701002    0.182517441401103    0.185052347790331  0.0000
  O2     O2        0.820744649861007    0.134530694874115    0.795781163016393  0.0000
  O2     O2        0.816789258798610    0.791004250361176    0.829544904231886  0.0000
  O2     O2        0.223923177070131    0.848738227648690    0.214488123831780  0.0000
  O3     O3        0.286368319746283    0.497768324550371    0.640913354795744  0.0000
  O2     O2        0.730381436092824    0.489330549448756    0.382253371973854  0.0000
  O3     O3        0.219845447231636    0.162437819709228    0.704386402299849  0.0000
  O2     O2        0.791113572159927    0.163505932935311    0.359548324110015  0.0000
  O2     O2        0.785846919216220    0.819832289496863    0.347232721112454  0.0000
  O2     O2        0.264732544432558    0.827170938682239    0.701782224772582  0.0000
  O2     O2        0.000733763496668    0.972338838247094    0.542636131387001  0.0000
  O2     O2        0.998087076634495    0.996628432279677    0.285517742299722  0.0000
  O2     O2        0.067315911131044    0.946810760887958    0.811606013824910  0.0000
  O2     O2        0.973754133227154    0.977725635028992    0.027684063808666  0.0000
