data_c00015.vasp
_audit_creation_method             Generated by GULP
_audit_author_name                 Salvador R. G. Balestra
_symmetry_space_group_name_H-M     'P 1             '
_symmetry_Int_Tables_number        1

loop_
_symmetry_equiv_pos_site_id
_symmetry_equiv_pos_as_xyz
_cell_length_a                        9.1437
_cell_length_b                        7.6666
_cell_length_c                       10.3820
_cell_angle_alpha                   90.7563
_cell_angle_beta                   109.4947
_cell_angle_gamma                   89.1076

loop_
_atom_site_label
_atom_site_type_symbol
_atom_site_fract_x
_atom_site_fract_y
_atom_site_fract_z
_atom_site_charge
  Ge     Ge        0.331050000000005    0.296920000000000    0.607380000000035  0.0000
  Ge     Ge        0.878220614612633    0.967829388651529    0.323230529027653  0.0000
  Si     Si        0.299793501642168    0.284747307870477    0.290916507639159  0.0000
  Si     Si        0.695113054420204    0.272936680786835    0.681107528396523  0.0000
  Si     Si        0.704586989655459    0.674932691457542    0.678835983841707  0.0000
  Si     Si        0.315326818864773    0.685807840752712    0.292247244475849  0.0000
  Si     Si        0.656527230350349    0.264588521487146    0.371013086141483  0.0000
  Si     Si        0.672668559030868    0.668382889200569    0.372421131577288  0.0000
  Si     Si        0.345574151522854    0.698893585405759    0.602275847401812  0.0000
  Si     Si        0.127939891004830    0.994425855242990    0.630133425115129  0.0000
  Si     Si        0.088976110998176    0.982350965074098    0.135146818651113  0.0000
  Si     Si        0.920206916849683    0.972777038934044    0.818555325824514  0.0000
  O3     O3        0.286517019089027    0.245521360208143    0.436823533693646  0.0000
  O2     O2        0.694363383306994    0.216247539446883    0.530243925060395  0.0000
  O2     O2        0.716757518101413    0.723614999863387    0.531982708121594  0.0000
  O2     O2        0.304294790432177    0.728410781601402    0.440538486266061  0.0000
  O2     O2        0.260271170555619    0.487610451774986    0.251382370810403  0.0000
  O2     O2        0.751305501666341    0.472966611169385    0.713218731352892  0.0000
  O2     O2        0.473565726853334    0.241291169242776    0.293030753299397  0.0000
  O3     O3        0.525436963528806    0.255068839322957    0.690412672994141  0.0000
  O2     O2        0.530154891652198    0.707537131378614    0.677051252090731  0.0000
  O2     O2        0.490914217325740    0.710264638378845    0.294935838580366  0.0000
  O2     O2        0.178640768183270    0.163836951206798    0.180667486590140  0.0000
  O2     O2        0.813960440193696    0.147013141223588    0.789698243080106  0.0000
  O2     O2        0.815481797599389    0.800053235000397    0.793597012511566  0.0000
  O2     O2        0.204092448216916    0.817405924532814    0.185470575991132  0.0000
  O3     O3        0.287281945407702    0.512285901518124    0.627850412162368  0.0000
  O2     O2        0.705206798577116    0.463369748493557    0.360319181636208  0.0000
  O3     O3        0.211815480801931    0.178382771477031    0.669273664908321  0.0000
  O3     O3        0.750513224761675    0.141090337422453    0.303807644399308  0.0000
  O3     O3        0.778532351513304    0.774944350006329    0.309523597400891  0.0000
  O2     O2        0.264719183990766    0.848463740342247    0.663945054512106  0.0000
  O3     O3        0.031473801171924    0.985372233957247    0.470753603046458  0.0000
  O3     O3        0.943957544213874    0.970519888372642    0.186498654368890  0.0000
  O2     O2        0.020941363058631    0.960349171310353    0.719607399410736  0.0000
  O2     O2        0.032410022685876    0.977109317594498    0.972302326765409  0.0000
