data_c00019.vasp
_audit_creation_method             Generated by GULP
_audit_author_name                 Salvador R. G. Balestra
_symmetry_space_group_name_H-M     'P 1             '
_symmetry_Int_Tables_number        1

loop_
_symmetry_equiv_pos_site_id
_symmetry_equiv_pos_as_xyz
_cell_length_a                        9.2030
_cell_length_b                        7.6526
_cell_length_c                       10.6824
_cell_angle_alpha                   90.4914
_cell_angle_beta                   111.3817
_cell_angle_gamma                   89.5379

loop_
_atom_site_label
_atom_site_type_symbol
_atom_site_fract_x
_atom_site_fract_y
_atom_site_fract_z
_atom_site_charge
  Ge     Ge        0.879680000000008    0.000000000000000    0.350159999999960  0.0000
  Ge     Ge        0.153854688953589    0.016479394185663    0.664849035740882  0.0000
  Si     Si        0.306466059705740    0.310924801738339    0.321571839340914  0.0000
  Si     Si        0.717305451543425    0.301357396240404    0.692788016238210  0.0000
  Si     Si        0.727092296185056    0.705548464719643    0.693547086647706  0.0000
  Si     Si        0.316251995812551    0.715128328700990    0.322329455797180  0.0000
  Si     Si        0.358973933025677    0.316027950575991    0.624594071244084  0.0000
  Si     Si        0.664636908740804    0.296733841031126    0.389619879155190  0.0000
  Si     Si        0.674579251249023    0.700470771560878    0.390532724340724  0.0000
  Si     Si        0.368910229332658    0.719731385577874    0.625502113005066  0.0000
  Si     Si        0.088287958332263    0.010208070355883    0.166611793067882  0.0000
  Si     Si        0.945252407691388    0.006273688265405    0.848458521750462  0.0000
  O2     O2        0.296273882702809    0.267304191632146    0.465619093456841  0.0000
  O2     O2        0.726250615416541    0.250659819275922    0.548662654154054  0.0000
  O2     O2        0.737301521322169    0.749211403659546    0.549508047866317  0.0000
  O2     O2        0.307306346986951    0.765783131115925    0.466458073882212  0.0000
  O2     O2        0.264740571811761    0.514152060369546    0.285687815412011  0.0000
  O2     O2        0.768855722329116    0.502325377623964    0.729404892532675  0.0000
  O2     O2        0.478869680767049    0.268038797970868    0.324745252227714  0.0000
  O2     O2        0.543188776987976    0.273682187728817    0.689416087210404  0.0000
  O2     O2        0.554682303131287    0.748379070477307    0.690367139274160  0.0000
  O2     O2        0.490370852644271    0.742865007355484    0.325710858181123  0.0000
  O2     O2        0.183458551157864    0.190206314421492    0.212060997803251  0.0000
  O2     O2        0.832873439262695    0.174874258012063    0.802235177387354  0.0000
  O2     O2        0.850053772782601    0.826277231433490    0.803090628928405  0.0000
  O2     O2        0.200648879599126    0.841604316643682    0.212903681132404  0.0000
  O2     O2        0.329326546282034    0.519679711609428    0.643324597324546  0.0000
  O2     O2        0.704184283605994    0.496803814330346    0.371815302233778  0.0000
  O3     O3        0.263886954217321    0.205314129417278    0.691542747324692  0.0000
  O3     O3        0.751942962352900    0.175535871168562    0.320002152208545  0.0000
  O3     O3        0.769679053840517    0.811151529044287    0.323570770313085  0.0000
  O3     O3        0.281621383190963    0.840961336461160    0.695111404313323  0.0000
  O1     O1        0.016862502119825    0.008240514167879    0.507464755374081  0.0000
  O3     O3        0.952408692214908    0.001452323597847    0.224285922387792  0.0000
  O3     O3        0.080991410410331    0.015016427068996    0.790624761151907  0.0000
  O2     O2        0.016881754442664    0.008253257901294    0.007532986175661  0.0000
