data_c00020.vasp
_audit_creation_method             Generated by GULP
_audit_author_name                 Salvador R. G. Balestra
_symmetry_space_group_name_H-M     'P 1             '
_symmetry_Int_Tables_number        1

loop_
_symmetry_equiv_pos_site_id
_symmetry_equiv_pos_as_xyz
_cell_length_a                        9.0874
_cell_length_b                        7.6515
_cell_length_c                       10.3954
_cell_angle_alpha                   91.0183
_cell_angle_beta                   108.9773
_cell_angle_gamma                   88.7853

loop_
_atom_site_label
_atom_site_type_symbol
_atom_site_fract_x
_atom_site_fract_y
_atom_site_fract_z
_atom_site_charge
  Ge     Ge        0.879680000000008    0.000000000000000    0.350159999999960  0.0000
  Ge     Ge        0.091022170974440    0.032671806064531    0.158236742003609  0.0000
  Si     Si        0.297386766311827    0.340775507804330    0.320926599009070  0.0000
  Si     Si        0.685438676263221    0.310380653656638    0.709303617672898  0.0000
  Si     Si        0.708537410054803    0.711040892727836    0.712905111478597  0.0000
  Si     Si        0.331020160414495    0.740824802972295    0.325543283523186  0.0000
  Si     Si        0.327769140710807    0.346675091308678    0.629472467696035  0.0000
  Si     Si        0.653066807389789    0.295007225302506    0.401101580035009  0.0000
  Si     Si        0.687462312244023    0.695808074716193    0.407994468652677  0.0000
  Si     Si        0.349863508138959    0.745566851465114    0.631328631299555  0.0000
  Si     Si        0.128211454670656    0.043622219805908    0.647844957326513  0.0000
  Si     Si        0.919590102873457    0.017673552251860    0.838398733772666  0.0000
  O2     O2        0.286015827876088    0.305941022438031    0.469771642124387  0.0000
  O2     O2        0.693611097440136    0.255662020555829    0.561270843444492  0.0000
  O2     O2        0.727150227250516    0.745359645074250    0.567124188086147  0.0000
  O2     O2        0.314116691001824    0.787021302496683    0.472528010792777  0.0000
  O2     O2        0.270958355764741    0.544831298065641    0.284854104118323  0.0000
  O2     O2        0.745172498988352    0.507553396849056    0.751298222729004  0.0000
  O2     O2        0.469120024409721    0.279123207571560    0.323333804489904  0.0000
  O2     O2        0.508181067141045    0.298613253274105    0.707992501204323  0.0000
  O2     O2        0.533869619074153    0.761201622263305    0.709780454963723  0.0000
  O2     O2        0.509602915932410    0.754362655110719    0.331554803190107  0.0000
  O3     O3        0.166198500161324    0.236713343276461    0.211328793179381  0.0000
  O2     O2        0.793782735088902    0.176952088888710    0.818195725687230  0.0000
  O2     O2        0.829350917187277    0.833803858967079    0.822231619049482  0.0000
  O3     O3        0.231924825542546    0.872822490101184    0.215893990240460  0.0000
  O2     O2        0.295024960529823    0.551201889124390    0.651949430782139  0.0000
  O2     O2        0.709549370775849    0.489665698389633    0.386940291691988  0.0000
  O2     O2        0.219434368166032    0.227478825893107    0.686543724630654  0.0000
  O3     O3        0.738713030193606    0.159308432422724    0.333364963405736  0.0000
  O3     O3        0.803819282657372    0.795603074998128    0.352322418162111  0.0000
  O2     O2        0.253840492449088    0.883737833555626    0.691949289974175  0.0000
  O3     O3        0.042149105992936    0.036043121276401    0.487582160071453  0.0000
  O1     O1        0.933045730144400    0.000111643032590    0.207143770167907  0.0000
  O2     O2        0.004822595626749    0.031354835382042    0.725936114591560  0.0000
  O3     O3        0.044198012750434    0.028712080569797    0.984182261634708  0.0000
