data_c00014.vasp
_audit_creation_method             Generated by GULP
_audit_author_name                 Salvador R. G. Balestra
_symmetry_space_group_name_H-M     'P 1             '
_symmetry_Int_Tables_number        1

loop_
_symmetry_equiv_pos_site_id
_symmetry_equiv_pos_as_xyz
_cell_length_a                        9.0207
_cell_length_b                        7.6112
_cell_length_c                       10.2991
_cell_angle_alpha                   91.5275
_cell_angle_beta                   108.6459
_cell_angle_gamma                   88.0140

loop_
_atom_site_label
_atom_site_type_symbol
_atom_site_fract_x
_atom_site_fract_y
_atom_site_fract_z
_atom_site_charge
  Ge     Ge        0.331050000000005    0.296920000000000    0.607380000000035  0.0000
  Ge     Ge        0.373131102713125    0.709730113566366    0.609806582633523  0.0000
  Si     Si        0.324179934734881    0.265130482731289    0.298595734416865  0.0000
  Si     Si        0.697834055092569    0.244418627940276    0.692897865325111  0.0000
  Si     Si        0.734430632091434    0.640573527488785    0.695282330547293  0.0000
  Si     Si        0.348985323716061    0.671849869889520    0.295863006624015  0.0000
  Si     Si        0.681161345562447    0.229923986333438    0.383020031239922  0.0000
  Si     Si        0.705243558017172    0.628315991130011    0.382113068442576  0.0000
  Si     Si        0.910187767702407    0.927874275895894    0.359075657753802  0.0000
  Si     Si        0.142995906451205    0.997036504157358    0.658727813241823  0.0000
  Si     Si        0.113547501609818    0.961362840154274    0.159239344900193  0.0000
  Si     Si        0.934354231670797    0.949373314536491    0.843373908150132  0.0000
  O3     O3        0.312939755624291    0.218003388912295    0.444452755625964  0.0000
  O2     O2        0.695778342989831    0.191082379308467    0.539451335160965  0.0000
  O2     O2        0.723655976323799    0.677936966401831    0.538931895333735  0.0000
  O3     O3        0.348603665134381    0.752116924486158    0.440559302341760  0.0000
  O2     O2        0.285285552305652    0.473369196236150    0.274000454500421  0.0000
  O2     O2        0.775384198220107    0.435522634429037    0.731091405987077  0.0000
  O2     O2        0.499060298932953    0.220861349297453    0.292582867812602  0.0000
  O3     O3        0.524983267155217    0.253226795005090    0.702491560569543  0.0000
  O3     O3        0.567157143357237    0.690514507279077    0.708099410119734  0.0000
  O2     O2        0.526156506123987    0.669446784104536    0.289837122353589  0.0000
  O2     O2        0.201265167915670    0.146714935952911    0.185374272675743  0.0000
  O2     O2        0.799445428681145    0.099022665578603    0.795033248895596  0.0000
  O2     O2        0.867501885025807    0.756407873932117    0.798458894282082  0.0000
  O2     O2        0.238529333425587    0.798595418076018    0.179468987555518  0.0000
  O1     O1        0.287438880228624    0.514625046810166    0.615087964005293  0.0000
  O2     O2        0.746256455608618    0.421695514716009    0.369312585813194  0.0000
  O3     O3        0.191279189591400    0.196179297867352    0.657885713869313  0.0000
  O2     O2        0.782477898570235    0.087190834877857    0.329016469675074  0.0000
  O2     O2        0.821837469597526    0.742549066163127    0.331101558161761  0.0000
  O3     O3        0.300357094972853    0.880246636205381    0.684659454627184  0.0000
  O2     O2        0.022065997144822    0.931315912464209    0.514993669723486  0.0000
  O2     O2        0.009961385201265    0.940133754354994    0.257938209298908  0.0000
  O2     O2        0.072758548147675    0.978929927921529    0.781347101794394  0.0000
  O2     O2        0.999274000693487    0.958414493273265    0.005844175398953  0.0000
