data_c00009.vasp
_audit_creation_method             Generated by GULP
_audit_author_name                 Salvador R. G. Balestra
_symmetry_space_group_name_H-M     'P 1             '
_symmetry_Int_Tables_number        1

loop_
_symmetry_equiv_pos_site_id
_symmetry_equiv_pos_as_xyz
_cell_length_a                        9.1270
_cell_length_b                        7.6717
_cell_length_c                       10.2833
_cell_angle_alpha                   88.7889
_cell_angle_beta                   109.0875
_cell_angle_gamma                   89.7693

loop_
_atom_site_label
_atom_site_type_symbol
_atom_site_fract_x
_atom_site_fract_y
_atom_site_fract_z
_atom_site_charge
  Ge     Ge        0.313819999999964    0.296860000000038    0.309830000000034  0.0000
  Ge     Ge        0.142708179076366    0.980038683565652    0.682029509811050  0.0000
  Si     Si        0.702419527951374    0.273737918995083    0.701092689189885  0.0000
  Si     Si        0.713250812288746    0.671167883190511    0.709228399097043  0.0000
  Si     Si        0.324204610719120    0.706537510722919    0.321123215780804  0.0000
  Si     Si        0.349235777823425    0.279042097186066    0.625601425586817  0.0000
  Si     Si        0.674989010709188    0.291793649338846    0.385994861781784  0.0000
  Si     Si        0.683040380979651    0.687541665213031    0.397172009972836  0.0000
  Si     Si        0.356647409834530    0.685958476176720    0.629096147138382  0.0000
  Si     Si        0.891050881060333    0.989671453941245    0.375939695824403  0.0000
  Si     Si        0.093091607639502    0.999619131856090    0.176989637831030  0.0000
  Si     Si        0.925883011429242    0.968740484160057    0.863605327416313  0.0000
  O3     O3        0.309942484563001    0.222747474865976    0.468488749154834  0.0000
  O2     O2        0.694457444908852    0.248201155598875    0.544691030131757  0.0000
  O2     O2        0.724661489241017    0.717181325443137    0.559654167476335  0.0000
  O2     O2        0.317342039661526    0.755029876187967    0.471523182260254  0.0000
  O3     O3        0.262841985822284    0.514327280824929    0.283129282934467  0.0000
  O2     O2        0.759182260337057    0.468734125219268    0.748463937899582  0.0000
  O3     O3        0.497103094349557    0.267904878263816    0.297976429434081  0.0000
  O2     O2        0.531121682811165    0.243558593875050    0.708960256261772  0.0000
  O2     O2        0.539570185079356    0.707374140130811    0.709354896257545  0.0000
  O2     O2        0.500690421289252    0.719960408194476    0.321385500940171  0.0000
  O3     O3        0.179796253597641    0.181422104681376    0.185715963063694  0.0000
  O2     O2        0.820704587694467    0.137367203837124    0.799082566780149  0.0000
  O2     O2        0.831751417762102    0.790869927482965    0.818770181873140  0.0000
  O2     O2        0.222836088734594    0.846555860252768    0.210814677747447  0.0000
  O2     O2        0.310527681375975    0.483826714736727    0.627899628385675  0.0000
  O2     O2        0.726880404162088    0.490703421097513    0.370351657540986  0.0000
  O3     O3        0.247939526451229    0.168709440075764    0.695658190516838  0.0000
  O2     O2        0.786379396514960    0.165605708807684    0.337365659135722  0.0000
  O2     O2        0.780474429300421    0.821130470672912    0.337100748560808  0.0000
  O3     O3        0.259873075057779    0.797959459425975    0.699793954947103  0.0000
  O3     O3        0.984460886754164    0.981502378069393    0.536350809389147  0.0000
  O2     O2        0.004970943663138    0.989845961805461    0.288147333144916  0.0000
  O3     O3        0.078731743424258    0.970520486359680    0.821867227800567  0.0000
  O2     O2        0.970373505388956    0.975777473973915    0.027404339300597  0.0000
