data_c00017.vasp
_audit_creation_method             Generated by GULP
_audit_author_name                 Salvador R. G. Balestra
_symmetry_space_group_name_H-M     'P 1             '
_symmetry_Int_Tables_number        1

loop_
_symmetry_equiv_pos_site_id
_symmetry_equiv_pos_as_xyz
_cell_length_a                        9.1025
_cell_length_b                        7.6723
_cell_length_c                       10.2850
_cell_angle_alpha                   90.2041
_cell_angle_beta                   107.7585
_cell_angle_gamma                   89.7187

loop_
_atom_site_label
_atom_site_type_symbol
_atom_site_fract_x
_atom_site_fract_y
_atom_site_fract_z
_atom_site_charge
  Ge     Ge        0.331050000000005    0.296920000000000    0.607380000000035  0.0000
  Ge     Ge        0.098471797635879    0.995283532610219    0.142366233827964  0.0000
  Si     Si        0.322125499059091    0.291876934511285    0.298685273283034  0.0000
  Si     Si        0.692875568173063    0.295403574190999    0.696264952116886  0.0000
  Si     Si        0.692561138019352    0.692701499909222    0.693146373502248  0.0000
  Si     Si        0.326317142571769    0.698521391750593    0.300999838140872  0.0000
  Si     Si        0.675807999832001    0.292533438826176    0.385327186505605  0.0000
  Si     Si        0.680899796663972    0.692072565791860    0.385998838834515  0.0000
  Si     Si        0.335186505936203    0.703997652399237    0.603693711028209  0.0000
  Si     Si        0.884804370817144    0.992256911775028    0.334015031942567  0.0000
  Si     Si        0.118279022042592    0.997595332176075    0.628706366051709  0.0000
  Si     Si        0.910004800636546    0.990433078405857    0.822440116618696  0.0000
  O3     O3        0.307368004274924    0.228771404126801    0.442428211395976  0.0000
  O2     O2        0.695224178961664    0.252774035637261    0.543045159102922  0.0000
  O2     O2        0.707992481645477    0.735540085034982    0.544644209293874  0.0000
  O2     O2        0.312679469551654    0.758924820287068    0.447314572500574  0.0000
  O2     O2        0.280225884729762    0.496158062106955    0.278752978483734  0.0000
  O2     O2        0.746615902838004    0.494787660167739    0.735172515273686  0.0000
  O2     O2        0.498318817191041    0.263206390702102    0.297862379251788  0.0000
  O3     O3        0.521617447361384    0.270196805925063    0.703143311587302  0.0000
  O2     O2        0.515632360214591    0.714633721245435    0.689655874221927  0.0000
  O2     O2        0.502556750820787    0.724506181693605    0.301058268183477  0.0000
  O3     O3        0.206842390639057    0.182417732973578    0.180696404737765  0.0000
  O2     O2        0.810328492230323    0.168625802423007    0.802062860207286  0.0000
  O2     O2        0.795717667565405    0.825021316564849    0.804103755808966  0.0000
  O3     O3        0.213190714858953    0.812274148031933    0.185746604723354  0.0000
  O3     O3        0.275621474592690    0.511161718637551    0.611925608596056  0.0000
  O2     O2        0.726422841485779    0.491126840800671    0.368897625104246  0.0000
  O3     O3        0.211161558617011    0.175330928926867    0.671363309001194  0.0000
  O2     O2        0.781301179070001    0.163824022151698    0.330079114071970  0.0000
  O2     O2        0.786937592045646    0.816532330390353    0.328724374401387  0.0000
  O2     O2        0.241480748924668    0.839315056190534    0.667277297619822  0.0000
  O2     O2        0.033733672922128    0.996198387799743    0.466477834162456  0.0000
  O3     O3        0.942168890165829    0.994398772790774    0.202803507149512  0.0000
  O2     O2        0.994957180430535    0.974509580293552    0.707613243780831  0.0000
  O3     O3        0.032983679377455    0.989236144153196    0.967490786000893  0.0000
