data_c00005.vasp
_audit_creation_method             Generated by GULP
_audit_author_name                 Salvador R. G. Balestra
_symmetry_space_group_name_H-M     'P 1             '
_symmetry_Int_Tables_number        1

loop_
_symmetry_equiv_pos_site_id
_symmetry_equiv_pos_as_xyz
_cell_length_a                        9.0162
_cell_length_b                        7.6684
_cell_length_c                       10.3620
_cell_angle_alpha                   87.9290
_cell_angle_beta                   108.5144
_cell_angle_gamma                   90.3419

loop_
_atom_site_label
_atom_site_type_symbol
_atom_site_fract_x
_atom_site_fract_y
_atom_site_fract_z
_atom_site_charge
  Ge     Ge        0.313819999999964    0.296860000000038    0.309830000000034  0.0000
  Ge     Ge        0.690529861819986    0.293212626922905    0.397288801179836  0.0000
  Si     Si        0.703005665347214    0.265121271782955    0.709070960497118  0.0000
  Si     Si        0.705872734611214    0.666795443540147    0.717510327238887  0.0000
  Si     Si        0.324495595434598    0.695378759351341    0.328939946076851  0.0000
  Si     Si        0.343127868744475    0.269665260915852    0.626062809351011  0.0000
  Si     Si        0.689342642605112    0.690832203243018    0.413992265831530  0.0000
  Si     Si        0.345594189683130    0.671166823636505    0.633936728373231  0.0000
  Si     Si        0.898234095214473    0.988585232990049    0.369149145641318  0.0000
  Si     Si        0.136983302349154    0.966722629850928    0.671230245015733  0.0000
  Si     Si        0.103036516739521    0.990651480562484    0.173965838851608  0.0000
  Si     Si        0.923255897068884    0.961278907375378    0.860231678234006  0.0000
  O3     O3        0.313575323853412    0.226661076901805    0.470419305781624  0.0000
  O3     O3        0.709237303997552    0.221416883025456    0.561832869568497  0.0000
  O2     O2        0.718119956375381    0.731266419938031    0.571812015902143  0.0000
  O2     O2        0.315334280375260    0.735608214072409    0.478140247474961  0.0000
  O3     O3        0.248967948530670    0.511217547345521    0.281266738474575  0.0000
  O2     O2        0.757237552019643    0.464102176012594    0.745980078105592  0.0000
  O1     O1        0.498827907969008    0.273021416964284    0.300634536983298  0.0000
  O2     O2        0.525636251476704    0.241844106408090    0.710592628844887  0.0000
  O2     O2        0.528592578326714    0.689804409626436    0.718793801264282  0.0000
  O2     O2        0.504669189368043    0.678490005112463    0.335836012990244  0.0000
  O3     O3        0.176325850885364    0.180922892185690    0.190037232591094  0.0000
  O2     O2        0.815050931692219    0.133399134694580    0.820637090048143  0.0000
  O2     O2        0.819729894667737    0.786326494976488    0.829873787710972  0.0000
  O2     O2        0.247003383843163    0.853900685566722    0.226079530911327  0.0000
  O2     O2        0.293632038364710    0.469712125750120    0.638834806907119  0.0000
  O3     O3        0.758609943012659    0.504970628101169    0.400016565108328  0.0000
  O2     O2        0.241659938226032    0.140684407937621    0.689726415845091  0.0000
  O3     O3        0.816539607653400    0.175674080110486    0.339069434979788  0.0000
  O2     O2        0.761602395391253    0.845043465946402    0.345800493764175  0.0000
  O2     O2        0.244504797155484    0.792852418312707    0.697456035202004  0.0000
  O2     O2        0.011974698347954    0.967972588547146    0.522642970970498  0.0000
  O2     O2        0.988961413507784    0.956891969214331    0.263232079603844  0.0000
  O2     O2        0.053230974629074    0.964479628654766    0.785245140637172  0.0000
  O2     O2        0.008374099919837    0.956593639570635    0.019743745370998  0.0000
