data_c00002.vasp
_audit_creation_method             Generated by GULP
_audit_author_name                 Salvador R. G. Balestra
_symmetry_space_group_name_H-M     'P 1             '
_symmetry_Int_Tables_number        1

loop_
_symmetry_equiv_pos_site_id
_symmetry_equiv_pos_as_xyz
_cell_length_a                        9.0929
_cell_length_b                        7.6085
_cell_length_c                       10.3183
_cell_angle_alpha                   87.7389
_cell_angle_beta                   109.2085
_cell_angle_gamma                   88.6738

loop_
_atom_site_label
_atom_site_type_symbol
_atom_site_fract_x
_atom_site_fract_y
_atom_site_fract_z
_atom_site_charge
  Ge     Ge        0.313819999999964    0.296860000000038    0.309830000000034  0.0000
  Ge     Ge        0.734469360124496    0.620713979557737    0.729638619693560  0.0000
  Si     Si        0.698461083046610    0.216817241235265    0.704164388316565  0.0000
  Si     Si        0.349070709199709    0.701093661949042    0.334730055605146  0.0000
  Si     Si        0.342408804460993    0.263135453472432    0.625909769536241  0.0000
  Si     Si        0.676617579038039    0.255935284309486    0.393173627901997  0.0000
  Si     Si        0.705724041769483    0.654466052527785    0.413297704660248  0.0000
  Si     Si        0.371040305898012    0.662784871245533    0.645189762768011  0.0000
  Si     Si        0.901213806562658    0.957899476792823    0.370168661651046  0.0000
  Si     Si        0.147441222670144    0.960091069734313    0.672558451144647  0.0000
  Si     Si        0.106763668955275    0.996757424006055    0.177038985164527  0.0000
  Si     Si        0.941250616444960    0.920914585365839    0.863695017568740  0.0000
  O3     O3        0.306693878094601    0.223840921367767    0.467942602021618  0.0000
  O2     O2        0.687407513130835    0.193940352948700    0.546981516543958  0.0000
  O3     O3        0.741873749246666    0.692549522019669    0.571475131110324  0.0000
  O2     O2        0.358157660077079    0.727073405741230    0.491219012325652  0.0000
  O3     O3        0.269910330985348    0.520205622973948    0.283496983968752  0.0000
  O3     O3        0.777840227537167    0.397147726588627    0.756813692802448  0.0000
  O3     O3        0.497737938521345    0.257491688680668    0.299384637734522  0.0000
  O2     O2        0.523936019880917    0.220415083642680    0.710767543574930  0.0000
  O3     O3        0.550042944110698    0.660940897495704    0.738673945234840  0.0000
  O2     O2        0.523963444828512    0.696665352373816    0.329287245013945  0.0000
  O3     O3        0.170734562417278    0.191012361597201    0.188702495133376  0.0000
  O2     O2        0.789963128209900    0.049807278741897    0.795768920208555  0.0000
  O3     O3        0.878030496232162    0.726231758790363    0.850547635202060  0.0000
  O2     O2        0.258014342288290    0.866348381066647    0.240132042753437  0.0000
  O2     O2        0.303480211877532    0.467440473417686    0.642621491707044  0.0000
  O2     O2        0.744922644877480    0.450777283833562    0.395072227443287  0.0000
  O2     O2        0.238118246744187    0.141423978434069    0.688890380854406  0.0000
  O2     O2        0.781100541055146    0.125214359131971    0.338757015933135  0.0000
  O2     O2        0.809515012613696    0.777146469286776    0.350522668575871  0.0000
  O2     O2        0.267138270419763    0.792767186218454    0.700872154723027  0.0000
  O2     O2        0.021255554662991    0.958741713387989    0.522776773543084  0.0000
  O2     O2        0.987048649760219    0.966587560001167    0.258896755919990  0.0000
  O2     O2        0.067561209574128    0.951139946199677    0.788464095407686  0.0000
  O2     O2        0.019757482850980    0.959551201224763    0.020862867220928  0.0000
