data_c00013.vasp
_audit_creation_method             Generated by GULP
_audit_author_name                 Salvador R. G. Balestra
_symmetry_space_group_name_H-M     'P 1             '
_symmetry_Int_Tables_number        1

loop_
_symmetry_equiv_pos_site_id
_symmetry_equiv_pos_as_xyz
_cell_length_a                        9.0777
_cell_length_b                        7.6377
_cell_length_c                       10.3452
_cell_angle_alpha                   91.2246
_cell_angle_beta                   108.4642
_cell_angle_gamma                   88.2740

loop_
_atom_site_label
_atom_site_type_symbol
_atom_site_fract_x
_atom_site_fract_y
_atom_site_fract_z
_atom_site_charge
  Ge     Ge        0.331050000000005    0.296920000000000    0.607380000000035  0.0000
  Ge     Ge        0.694473964302275    0.650665532377568    0.375636037507406  0.0000
  Si     Si        0.311835122565657    0.281354113052071    0.295287122812594  0.0000
  Si     Si        0.694241310818443    0.265408393086883    0.689626146256001  0.0000
  Si     Si        0.713685388889471    0.666187835731284    0.687727945368148  0.0000
  Si     Si        0.331297082085366    0.682143425916582    0.293371559146532  0.0000
  Si     Si        0.668966042980574    0.246047198795706    0.379844926832516  0.0000
  Si     Si        0.356562571401852    0.701498237955712    0.603156661090333  0.0000
  Si     Si        0.894028457886134    0.952742116562446    0.340859069896444  0.0000
  Si     Si        0.131469748067985    0.994830584649394    0.641941218679304  0.0000
  Si     Si        0.101364070149327    0.982356310028551    0.149882010953416  0.0000
  Si     Si        0.924146079064320    0.965186399889540    0.832994240289478  0.0000
  O3     O3        0.300630456254164    0.231101318445712    0.440717265251762  0.0000
  O2     O2        0.686208897643547    0.208312237950742    0.536758687554958  0.0000
  O3     O3        0.724894973716906    0.716479417264117    0.542302008346373  0.0000
  O2     O2        0.339386272978084    0.739196099654075    0.446256244231563  0.0000
  O2     O2        0.265902772611927    0.485494666431095    0.263554156956967  0.0000
  O2     O2        0.759652399007972    0.462051226779429    0.719431063517195  0.0000
  O2     O2        0.487355007872555    0.249132939219253    0.292966420492446  0.0000
  O3     O3        0.523425447357218    0.259130622332164    0.701737227412430  0.0000
  O2     O2        0.538165468484684    0.698354463865230    0.690056642604612  0.0000
  O3     O3        0.502108149753711    0.688460312326086    0.281247870015215  0.0000
  O2     O2        0.198256054131428    0.159814934790619    0.180558958862705  0.0000
  O2     O2        0.810690313791757    0.134864465971082    0.794636745477425  0.0000
  O2     O2        0.827213147014652    0.787746134202257    0.802487123078476  0.0000
  O2     O2        0.214807160047104    0.812691471581700    0.188409420475936  0.0000
  O3     O3        0.284758435794876    0.516852313787165    0.615011722548157  0.0000
  O3     O3        0.740731691157492    0.430717395454751    0.368000684771521  0.0000
  O3     O3        0.203894142371059    0.185309844634204    0.666019300696111  0.0000
  O2     O2        0.751313355222405    0.091322693920049    0.320061363030048  0.0000
  O3     O3        0.821649368350369    0.762240303059905    0.317000401588188  0.0000
  O2     O2        0.274211302923920    0.856243262217541    0.662915080649026  0.0000
  O2     O2        0.012933601904568    0.973855764724241    0.491313351821308  0.0000
  O2     O2        0.976384661507165    0.987404197144471    0.229436883409449  0.0000
  O2     O2        0.048742864274853    0.960048022374483    0.753060086854919  0.0000
  O2     O2        0.012989756698027    0.973780239868088    0.991393728944178  0.0000
