data_c00003.vasp
_audit_creation_method             Generated by GULP
_audit_author_name                 Salvador R. G. Balestra
_symmetry_space_group_name_H-M     'P 1             '
_symmetry_Int_Tables_number        1

loop_
_symmetry_equiv_pos_site_id
_symmetry_equiv_pos_as_xyz
_cell_length_a                       17.3358
_cell_length_b                        7.6503
_cell_length_c                       10.0100
_cell_angle_alpha                   89.9627
_cell_angle_beta                    90.5283
_cell_angle_gamma                   90.4003

loop_
_atom_site_label
_atom_site_type_symbol
_atom_site_fract_x
_atom_site_fract_y
_atom_site_fract_z
_atom_site_charge
  Ge     Ge        0.052090000000021    0.000000000000000    0.372269999999958  0.0000
  Ge     Ge        0.452794563453335    0.015140107738456    0.360482437396090  0.0000
  Ge     Ge        0.441057356711379    0.016208976837284    0.858696429036280  0.0000
  Si     Si        0.946724372689479    0.008313813153002    0.627703624315077  0.0000
  Si     Si        0.554727589070771    0.006619138513444    0.618731671272687  0.0000
  Si     Si        0.556028398111239    0.003759202456573    0.101758547795512  0.0000
  Si     Si        0.946460781328460    0.011040798825106    0.110759926272524  0.0000
  Si     Si        0.055786359176751    0.000697270928724    0.870385308085336  0.0000
  Si     Si        0.167824869014470    0.291790069747487    0.295090236953548  0.0000
  Si     Si        0.335105826066208    0.724841256486811    0.288951665125474  0.0000
  Si     Si        0.838383472460126    0.305405094830346    0.729485084800581  0.0000
  Si     Si        0.663035470323600    0.709426424003144    0.727403391653221  0.0000
  Si     Si        0.839805033303877    0.707222742232599    0.728825063274859  0.0000
  Si     Si        0.661643053387359    0.308016667911285    0.726926042965982  0.0000
  Si     Si        0.156680312634694    0.694083628206736    0.295678307435430  0.0000
  Si     Si        0.345996882108748    0.319774466149414    0.287904208287294  0.0000
  Si     Si        0.660956604622270    0.311232940096417    0.041228806402418  0.0000
  Si     Si        0.841649949506985    0.704178505446466    0.042720601351675  0.0000
  Si     Si        0.341873307566865    0.321070926944698    0.979063360957622  0.0000
  Si     Si        0.151970640429605    0.695203216051487    0.985301737869968  0.0000
  Si     Si        0.330765084187548    0.724659617411108    0.980324566519550  0.0000
  Si     Si        0.163082765777845    0.294191228617080    0.983971019651122  0.0000
  Si     Si        0.664577715610583    0.707108385831573    0.041685832346880  0.0000
  Si     Si        0.837975060932332    0.307642011599558    0.043346278334113  0.0000
  O3     O3        0.119382297818493    0.166773953051534    0.389060269636408  0.0000
  O3     O3        0.386588749004718    0.846821344442982    0.381942698905822  0.0000
  O2     O2        0.895016548832853    0.179151502896930    0.650939475973686  0.0000
  O2     O2        0.605703292779425    0.835633953709000    0.648644571663197  0.0000
  O2     O2        0.896465075518575    0.832986023099588    0.648156199234705  0.0000
  O2     O2        0.603852573329326    0.182380340005067    0.647273553141547  0.0000
  O3     O3        0.101243770005188    0.805107702217694    0.387382381464432  0.0000
  O3     O3        0.404070932127048    0.210480077383796    0.377739722000966  0.0000
  O3     O3        0.975547006795404    0.012765131934084    0.477803233736713  0.0000
  O3     O3        0.531432845868093    0.003579016605965    0.464145751733251  0.0000
  O3     O3        0.014399462257005    0.020355239813524    0.214115685438788  0.0000
  O3     O3        0.486077377488530    0.996142397843110    0.199915911699324  0.0000
  O2     O2        0.024564105979343    0.007228867656386    0.718492201362135  0.0000
  O3     O3        0.474281207994899    0.007404007661204    0.696621682371668  0.0000
  O2     O2        0.605490486459171    0.182787023800182    0.122926412065522  0.0000
  O2     O2        0.896783195368384    0.832309938753874    0.127116529077119  0.0000
  O3     O3        0.396176619239459    0.214243602567105    0.883199768855654  0.0000
  O2     O2        0.096763545583837    0.814514301538869    0.894593837492700  0.0000
  O3     O3        0.375519173851305    0.848943530778124    0.881100978175438  0.0000
  O2     O2        0.115460506070020    0.160418892352429    0.891655807576557  0.0000
  O2     O2        0.612713082840104    0.838816149721840    0.125173000941849  0.0000
  O2     O2        0.889675974890423    0.175871537027035    0.128814272488642  0.0000
  O3     O3        0.523262859169114    0.994176014520065    0.952261343304016  0.0000
  O2     O2        0.981820695533979    0.020518462561469    0.962913157120583  0.0000
  O2     O2        0.142569800810276    0.490157967694433    0.323457291333354  0.0000
  O2     O2        0.360918022730438    0.524929730740207    0.309512144233803  0.0000
  O2     O2        0.859889918833230    0.506229658288241    0.695192255169646  0.0000
  O2     O2        0.641292332129618    0.508831423224441    0.691978709329547  0.0000
  O2     O2        0.258454263799165    0.270207105360456    0.326513912355286  0.0000
  O2     O2        0.245471862254992    0.745113408100032    0.326231279347022  0.0000
  O2     O2        0.749720411085026    0.267551600046510    0.686222233503067  0.0000
  O2     O2        0.751514037464654    0.747418125605652    0.686285776421325  0.0000
  O2     O2        0.151752533364375    0.245102761072194    0.139199666404822  0.0000
  O2     O2        0.346961291026192    0.781157535978723    0.133891182150613  0.0000
  O2     O2        0.847382138924664    0.270214104285696    0.886612510574049  0.0000
  O2     O2        0.654215891790238    0.742932461434418    0.884481308956177  0.0000
  O2     O2        0.851201031665791    0.742471359607664    0.885830963894875  0.0000
  O2     O2        0.650633043736582    0.274746984025697    0.883920358851601  0.0000
  O2     O2        0.137286939152371    0.738590288463657    0.140507362429101  0.0000
  O2     O2        0.359857135633109    0.267786140801889    0.132705146039786  0.0000
  O2     O2        0.637678732391503    0.509742294165811    0.075423171475691  0.0000
  O2     O2        0.864974711674144    0.505293997570246    0.076553640106728  0.0000
  O2     O2        0.358701239596598    0.526357567722593    0.958480813906415  0.0000
  O2     O2        0.133360865778900    0.491235169407467    0.956404398622725  0.0000
  O2     O2        0.749289422628317    0.278976957000862    0.084368002848694  0.0000
  O2     O2        0.753433038631993    0.736072091362927    0.084097617848448  0.0000
  O2     O2        0.252486797648240    0.278637176929628    0.945246779742036  0.0000
  O2     O2        0.239897061060459    0.738057708675842    0.948291682057123  0.0000
