data_c00007.vasp
_audit_creation_method             Generated by GULP
_audit_author_name                 Salvador R. G. Balestra
_symmetry_space_group_name_H-M     'P 1             '
_symmetry_Int_Tables_number        1

loop_
_symmetry_equiv_pos_site_id
_symmetry_equiv_pos_as_xyz
_cell_length_a                       17.3095
_cell_length_b                        7.6502
_cell_length_c                       10.1796
_cell_angle_alpha                   89.5760
_cell_angle_beta                    89.8434
_cell_angle_gamma                   90.4163

loop_
_atom_site_label
_atom_site_type_symbol
_atom_site_fract_x
_atom_site_fract_y
_atom_site_fract_z
_atom_site_charge
  Ge     Ge        0.052090000000021    0.000000000000000    0.372269999999958  0.0000
  Ge     Ge        0.454374548899947    0.014997430718950    0.372076219664297  0.0000
  Ge     Ge        0.348650722325710    0.334641153198771    0.956825471852835  0.0000
  Si     Si        0.953916064353030    0.013364903863742    0.638614550780297  0.0000
  Si     Si        0.556799928582888    0.005824206007255    0.634870774698270  0.0000
  Si     Si        0.562036247261606    0.011413343554090    0.122322292573450  0.0000
  Si     Si        0.943406131276729    0.015129068879887    0.126754315880099  0.0000
  Si     Si        0.450862219763971    0.029187532510911    0.883448587708912  0.0000
  Si     Si        0.057905852116362    0.017683091606649    0.891707327349414  0.0000
  Si     Si        0.170285127417602    0.296091176982079    0.265117099947302  0.0000
  Si     Si        0.337991563203226    0.723937974171536    0.273697064534280  0.0000
  Si     Si        0.843787734053731    0.309100593123831    0.710388291102533  0.0000
  Si     Si        0.666872541463493    0.709882480697360    0.702976774742452  0.0000
  Si     Si        0.844590303637905    0.710454522941318    0.705347521473941  0.0000
  Si     Si        0.664870451198835    0.308523221015540    0.709124467628189  0.0000
  Si     Si        0.160149827451815    0.700043399793794    0.275222008614488  0.0000
  Si     Si        0.346679010203502    0.315695300545811    0.267572242181227  0.0000
  Si     Si        0.663578939951660    0.314730516090984    0.015707413097335  0.0000
  Si     Si        0.842708463311728    0.712452598283635    0.013223691303555  0.0000
  Si     Si        0.160110034827884    0.713056855825603    0.970627884178203  0.0000
  Si     Si        0.339753626922023    0.739952103752695    0.969785640580216  0.0000
  Si     Si        0.167875243794775    0.315723147064295    0.957046071961762  0.0000
  Si     Si        0.665068315585457    0.713086354899469    0.010883717962613  0.0000
  Si     Si        0.842253559121162    0.314227153757761    0.016996235257746  0.0000
  O3     O3        0.115496988019424    0.169875249951052    0.345990606896817  0.0000
  O3     O3        0.391010427239286    0.840474926368377    0.364589452183816  0.0000
  O2     O2        0.897638571700189    0.181213825471933    0.627125240105623  0.0000
  O2     O2        0.612152035611354    0.836982834687835    0.619151162489572  0.0000
  O2     O2        0.901297982837109    0.838061190396228    0.623908463428731  0.0000
  O2     O2        0.610493361932030    0.180179977644745    0.626186113303779  0.0000
  O3     O3        0.101062862883138    0.805071407313154    0.362885949690372  0.0000
  O3     O3        0.405699395119437    0.209067149133989    0.355607971508223  0.0000
  O3     O3        0.019274949512053    0.019781640921852    0.530907195372932  0.0000
  O3     O3        0.491374584910707    0.011151980041271    0.528336564138158  0.0000
  O3     O3        0.971313999723068    0.007990441265885    0.274675121957804  0.0000
  O3     O3        0.532834865761663    0.997877449589171    0.269464397254819  0.0000
  O2     O2        0.994258939269437    0.014534523206770    0.780240020968447  0.0000
  O2     O2        0.514828454753471    0.991323439727560    0.775546804191076  0.0000
  O2     O2        0.612276839112669    0.188297254747457    0.105752545917312  0.0000
  O2     O2        0.895196700103685    0.839717321132109    0.097929553647293  0.0000
  O3     O3        0.411540790589423    0.215511148843746    0.862067392664476  0.0000
  O2     O2        0.108487606429454    0.841564030600921    0.882760087015651  0.0000
  O2     O2        0.382534838164565    0.883858144210499    0.880004341258034  0.0000
  O2     O2        0.113015473834104    0.187376243011550    0.874084170838171  0.0000
  O2     O2        0.612732384214064    0.840934110966353    0.094152920508588  0.0000
  O2     O2        0.891506325988689    0.186829318139470    0.107720572416878  0.0000
  O2     O2        0.488662029712124    0.019344735994449    0.027433749373573  0.0000
  O2     O2        0.018313703736932    0.027382891134603    0.034145206721692  0.0000
  O2     O2        0.144200782335285    0.494272207069609    0.292501566714727  0.0000
  O2     O2        0.362471708569759    0.522054445887823    0.284489943455155  0.0000
  O2     O2        0.866215559564499    0.509561014058552    0.676020394106755  0.0000
  O2     O2        0.644043806938932    0.508838707518958    0.673844810304141  0.0000
  O2     O2        0.258687507723650    0.270053368070309    0.310972291538120  0.0000
  O2     O2        0.248392931354838    0.744880592969684    0.314893641831427  0.0000
  O2     O2        0.754345396276341    0.273440370354508    0.674635980973022  0.0000
  O2     O2        0.756059058701904    0.744080928667483    0.663103291781016  0.0000
  O2     O2        0.166272556061644    0.257509091586251    0.109807981770117  0.0000
  O2     O2        0.349598275921272    0.788134146319575    0.123201263050137  0.0000
  O2     O2        0.856581923818150    0.270801559535879    0.864597802663762  0.0000
  O2     O2        0.655775126247638    0.751434467123909    0.856538758585244  0.0000
  O2     O2        0.854434882715537    0.751586787261664    0.859248656267326  0.0000
  O2     O2        0.649810114726756    0.270609356479554    0.863113828701885  0.0000
  O2     O2        0.146866203621542    0.757366777259837    0.123542791240083  0.0000
  O3     O3        0.358244451251337    0.263565557489332    0.116836168255526  0.0000
  O2     O2        0.639080236518347    0.514176667702062    0.043337748397374  0.0000
  O2     O2        0.867252803960364    0.513732140417080    0.045951587116605  0.0000
  O3     O3        0.374411625071597    0.551538324927527    0.941350114804560  0.0000
  O2     O2        0.135969530501791    0.513284582321048    0.941038340658862  0.0000
  O2     O2        0.752624480524523    0.286472142997081    0.052371103734841  0.0000
  O2     O2        0.753773281809778    0.742171583736718    0.052350532013361  0.0000
  O3     O3        0.254545238776874    0.305792884662135    0.904837316890104  0.0000
  O2     O2        0.249461746899122    0.740204017826096    0.932316312746598  0.0000
