data_c00026.vasp
_audit_creation_method             Generated by GULP
_audit_author_name                 Salvador R. G. Balestra
_symmetry_space_group_name_H-M     'P 1             '
_symmetry_Int_Tables_number        1

loop_
_symmetry_equiv_pos_site_id
_symmetry_equiv_pos_as_xyz
_cell_length_a                       17.1364
_cell_length_b                        7.6025
_cell_length_c                       10.3539
_cell_angle_alpha                   90.5165
_cell_angle_beta                    90.7499
_cell_angle_gamma                   90.4445

loop_
_atom_site_label
_atom_site_type_symbol
_atom_site_fract_x
_atom_site_fract_y
_atom_site_fract_z
_atom_site_charge
  Ge     Ge        0.052090000000021    0.000000000000000    0.372269999999958  0.0000
  Ge     Ge        0.563306278378045    0.982749655256030    0.128497315329456  0.0000
  Ge     Ge        0.652222692828775    0.666413893714765    0.712462616503728  0.0000
  Si     Si        0.455041594031397    0.993415140500028    0.374310337371823  0.0000
  Si     Si        0.953018745753857    0.991875154669573    0.636518268091051  0.0000
  Si     Si        0.547957432563287    0.973970468353496    0.634461015214567  0.0000
  Si     Si        0.945219144609905    0.002972432753233    0.120446132773682  0.0000
  Si     Si        0.446721127515001    0.993474604925877    0.887065231997163  0.0000
  Si     Si        0.058583648406299    0.992358555080216    0.889135975224306  0.0000
  Si     Si        0.160549322240283    0.304440453714740    0.275413076612085  0.0000
  Si     Si        0.351637082119768    0.685498341941432    0.275166518892549  0.0000
  Si     Si        0.849566341610880    0.299217613102364    0.714518257159532  0.0000
  Si     Si        0.834716293788863    0.701775179031149    0.706883616722985  0.0000
  Si     Si        0.669231323360658    0.252961450962262    0.720404177653636  0.0000
  Si     Si        0.172191947252235    0.712785860615206    0.274550842854578  0.0000
  Si     Si        0.340043763056588    0.280299498622519    0.273185412850787  0.0000
  Si     Si        0.676072573896993    0.266126278531571    0.019300810521666  0.0000
  Si     Si        0.834244980892692    0.712047370494981    0.011359587211449  0.0000
  Si     Si        0.336662613168039    0.280634170037450    0.971254934464977  0.0000
  Si     Si        0.169655631537140    0.707121422862325    0.974844742501020  0.0000
  Si     Si        0.350240794663307    0.679217194788650    0.973984055571067  0.0000
  Si     Si        0.156357386207765    0.305736248382882    0.975704531889287  0.0000
  Si     Si        0.654589476097967    0.666647484870193    0.017575135937796  0.0000
  Si     Si        0.855941716392649    0.317621177801860    0.015156866370557  0.0000
  O3     O3        0.100956102091384    0.198403467916496    0.360821651244126  0.0000
  O2     O2        0.411915636513429    0.804623090743720    0.357146813212779  0.0000
  O2     O2        0.906701138179822    0.176743720818703    0.631874757680700  0.0000
  O3     O3        0.583827403340709    0.781185114092536    0.624240028406322  0.0000
  O2     O2        0.889909688090419    0.832962217208619    0.628221097239164  0.0000
  O2     O2        0.621715229894496    0.108873626011736    0.636102394671052  0.0000
  O3     O3        0.120161914944555    0.835109615303388    0.361052802544637  0.0000
  O2     O2        0.393333019358278    0.149593736818817    0.354582684287573  0.0000
  O3     O3        0.013038198865458    0.982485288147163    0.522802494839149  0.0000
  O2     O2        0.488779279327853    0.011398183244178    0.518236503853807  0.0000
  O3     O3        0.975439318983274    0.981386636043656    0.264518408867398  0.0000
  O3     O3        0.527347441558564    0.007639962541300    0.280529101031118  0.0000
  O2     O2        0.001232396595406    0.972959360793666    0.769127761381013  0.0000
  O2     O2        0.499919436235504    0.004310754563011    0.763877186026947  0.0000
  O3     O3        0.639367866966103    0.131800929449516    0.116472491822408  0.0000
  O2     O2        0.875545059575098    0.863988075454625    0.094767139982401  0.0000
  O2     O2        0.379741848245070    0.142209652826958    0.880199904986694  0.0000
  O2     O2        0.123848484742987    0.840302528446606    0.882576769840526  0.0000
  O2     O2        0.407203435949372    0.799507460318065    0.890373626645218  0.0000
  O2     O2        0.099654833593751    0.184591679218408    0.887465205621108  0.0000
  O3     O3        0.597711743794342    0.771456356343882    0.110036827923643  0.0000
  O2     O2        0.914332695521531    0.201874035306448    0.101035530657822  0.0000
  O3     O3        0.494479176757696    0.037644497657350    0.015728093692068  0.0000
  O2     O2        0.014165745342544    0.962132505158961    0.022232991192743  0.0000
  O2     O2        0.148195861432530    0.511023355339431    0.298484623316512  0.0000
  O2     O2        0.366329360658602    0.480731214478924    0.305243321829343  0.0000
  O2     O2        0.864420577937446    0.502901143988976    0.680867326946585  0.0000
  O3     O3        0.635514741419341    0.444210963544114    0.693600758637230  0.0000
  O2     O2        0.249790061295063    0.252737321812886    0.310406322489023  0.0000
  O2     O2        0.263650191130457    0.738398956629001    0.310065495130361  0.0000
  O2     O2        0.760092774033645    0.248311652989980    0.680732980339091  0.0000
  O3     O3        0.745647416117510    0.716106706084373    0.661987436452985  0.0000
  O2     O2        0.143279467768455    0.255954852215690    0.125064815840239  0.0000
  O2     O2        0.367409620575378    0.722561623753756    0.124518645662956  0.0000
  O2     O2        0.867995926242757    0.267053182501099    0.865419781385928  0.0000
  O3     O3        0.639067484566757    0.727519235091034    0.871623153770235  0.0000
  O2     O2        0.838789111396511    0.750177542171789    0.859159922648015  0.0000
  O2     O2        0.663008130412799    0.201720989556166    0.871229389554382  0.0000
  O2     O2        0.158880218859077    0.761714631642357    0.124292887358583  0.0000
  O2     O2        0.350704747149902    0.237601446019012    0.121938097138838  0.0000
  O2     O2        0.637824834603261    0.459017037171850    0.032260989557709  0.0000
  O2     O2        0.874744091451333    0.523933078679971    0.040407003152919  0.0000
  O2     O2        0.369116359882601    0.476365646905870    0.942521582489747  0.0000
  O2     O2        0.136795739603817    0.509622993429884    0.950617349302833  0.0000
  O2     O2        0.767552900637744    0.278160201393706    0.053867730643189  0.0000
  O2     O2        0.744773517453395    0.708207378854926    0.054349733357114  0.0000
  O2     O2        0.245209510005968    0.268935591546022    0.937471346914268  0.0000
  O2     O2        0.260526810407121    0.718538135015450    0.939154835944698  0.0000
