data_c00041.vasp
_audit_creation_method             Generated by GULP
_audit_author_name                 Salvador R. G. Balestra
_symmetry_space_group_name_H-M     'P 1             '
_symmetry_Int_Tables_number        1

loop_
_symmetry_equiv_pos_site_id
_symmetry_equiv_pos_as_xyz
_cell_length_a                       16.9791
_cell_length_b                        7.5647
_cell_length_c                       10.4456
_cell_angle_alpha                   89.9171
_cell_angle_beta                    90.4464
_cell_angle_gamma                   89.3927

loop_
_atom_site_label
_atom_site_type_symbol
_atom_site_fract_x
_atom_site_fract_y
_atom_site_fract_z
_atom_site_charge
  Ge     Ge        0.052090000000021    0.000000000000000    0.372269999999958  0.0000
  Ge     Ge        0.441933339115845    0.971555789422818    0.882656531511349  0.0000
  Ge     Ge        0.057591825817981    0.000217776076327    0.879365335152847  0.0000
  Si     Si        0.455777299858247    0.971695305534334    0.371409144067712  0.0000
  Si     Si        0.951293164713238    0.991279618565534    0.630094795498157  0.0000
  Si     Si        0.549473943611483    0.982340219818237    0.633255722507994  0.0000
  Si     Si        0.556895463552255    0.985083198584931    0.121498220783725  0.0000
  Si     Si        0.945615286813719    0.978534227241249    0.115651912075206  0.0000
  Si     Si        0.154023275335318    0.313301099539739    0.293065577101278  0.0000
  Si     Si        0.357745700958275    0.660381891485997    0.283428503616100  0.0000
  Si     Si        0.847816724213055    0.296850884384152    0.730091596976932  0.0000
  Si     Si        0.654124342159359    0.674746283946695    0.728699637463982  0.0000
  Si     Si        0.834666759622796    0.703828953647268    0.733025079119376  0.0000
  Si     Si        0.666170142110930    0.266957751333406    0.729078585721087  0.0000
  Si     Si        0.176564468574937    0.719891599207877    0.289933200773695  0.0000
  Si     Si        0.334885325897855    0.256144117030545    0.286239706590042  0.0000
  Si     Si        0.668252411227450    0.265220953723125    0.026784317696449  0.0000
  Si     Si        0.832013095553287    0.698107320199459    0.032536901107755  0.0000
  Si     Si        0.325835545943359    0.251263357908203    0.988403923974546  0.0000
  Si     Si        0.174009620844897    0.719481332761102    0.994100194778766  0.0000
  Si     Si        0.355656162191742    0.647513411943797    0.987137135496481  0.0000
  Si     Si        0.144901503446485    0.320325876320733    0.997188049394454  0.0000
  Si     Si        0.650652309020550    0.665845954181914    0.027135949704556  0.0000
  Si     Si        0.850921973223567    0.298743564884707    0.027737371867473  0.0000
  O3     O3        0.093783095763245    0.207414719619244    0.379691418400418  0.0000
  O2     O2        0.418523063635373    0.775789841439722    0.366802873974146  0.0000
  O2     O2        0.907430520366175    0.180855858510260    0.646542350532612  0.0000
  O2     O2        0.592883107576290    0.792261230397105    0.647532116577363  0.0000
  O2     O2        0.889050497775522    0.835628585896922    0.655093970332215  0.0000
  O2     O2        0.614227667294631    0.136700211549474    0.643688908602074  0.0000
  O3     O3        0.129722880154379    0.849519684205599    0.381695599052610  0.0000
  O2     O2        0.385334877496823    0.117035088441741    0.370096784471732  0.0000
  O3     O3        0.982491732810677    0.974373429689032    0.487965041649355  0.0000
  O2     O2        0.508015338896179    0.992993421277165    0.496705900326562  0.0000
  O3     O3        0.003752505555674    0.955141745169461    0.231643003469101  0.0000
  O2     O2        0.513495846691726    0.004926277182369    0.254333734055375  0.0000
  O3     O3        0.026161878391830    0.980013094671011    0.723724821695473  0.0000
  O3     O3        0.481908187182760    0.007350191529670    0.736216144294748  0.0000
  O2     O2        0.628690843402766    0.123846970795465    0.118828147019503  0.0000
  O2     O2        0.874482868904625    0.837570137357699    0.123623618847477  0.0000
  O3     O3        0.358930370421210    0.104615200851720    0.895774706277665  0.0000
  O3     O3        0.138367301378018    0.861834768924170    0.898911991948175  0.0000
  O3     O3        0.414136538626214    0.753363607933783    0.898212366370997  0.0000
  O3     O3        0.083554019544149    0.216725233631328    0.911054120867856  0.0000
  O2     O2        0.590363472323685    0.784713035517921    0.107757338735887  0.0000
  O2     O2        0.908856554931875    0.177984071320192    0.113459294827529  0.0000
  O3     O3        0.502301634756619    0.040232525708258    0.004008580833459  0.0000
  O3     O3        0.987117617435466    0.931626342198482    0.983128947706578  0.0000
  O2     O2        0.144697614295625    0.522220065959609    0.313757665096044  0.0000
  O2     O2        0.368811367571627    0.452181701017475    0.312075330767113  0.0000
  O2     O2        0.861565176406991    0.503314500732795    0.701336543673449  0.0000
  O2     O2        0.639933272526946    0.468653872532263    0.699669852459472  0.0000
  O2     O2        0.243475977667826    0.251017351008602    0.326762089801005  0.0000
  O2     O2        0.269693600458503    0.721998579762807    0.319812001067713  0.0000
  O2     O2        0.758325243521848    0.243576379955154    0.696357012628840  0.0000
  O2     O2        0.743101455380454    0.728480102074787    0.693039015962233  0.0000
  O2     O2        0.132579413398417    0.264873130455463    0.145697931598384  0.0000
  O2     O2        0.375432410435936    0.698780193427539    0.134549756523235  0.0000
  O2     O2        0.867517243027050    0.256201289506073    0.878712873620082  0.0000
  O2     O2        0.637242078795898    0.713956461441193    0.877820449658315  0.0000
  O2     O2        0.843159466599974    0.744641511874701    0.883212776302887  0.0000
  O2     O2        0.653341672422236    0.218486120742106    0.877725280689562  0.0000
  O2     O2        0.163112201357721    0.779386512044754    0.142026797947762  0.0000
  O2     O2        0.340917019281284    0.201846445789678    0.137550505339760  0.0000
  O2     O2        0.632674912533029    0.460641926401232    0.053701673810575  0.0000
  O2     O2        0.868149586812227    0.502836164421439    0.059343205619331  0.0000
  O2     O2        0.367690539183208    0.439306170120191    0.962640465378755  0.0000
  O2     O2        0.131761507505750    0.529833632127739    0.977265891976719  0.0000
  O2     O2        0.760651148211807    0.258129744228397    0.058370202738416  0.0000
  O2     O2        0.740108248148266    0.705441775821152    0.067135453610131  0.0000
  O2     O2        0.233309830698603    0.267249351687491    0.958043531694326  0.0000
  O2     O2        0.265555158668459    0.701675215032800    0.959119393701634  0.0000
