data_c00043.vasp
_audit_creation_method             Generated by GULP
_audit_author_name                 Salvador R. G. Balestra
_symmetry_space_group_name_H-M     'P 1             '
_symmetry_Int_Tables_number        1

loop_
_symmetry_equiv_pos_site_id
_symmetry_equiv_pos_as_xyz
_cell_length_a                       17.1220
_cell_length_b                        7.6094
_cell_length_c                       10.2995
_cell_angle_alpha                   89.1707
_cell_angle_beta                    90.1534
_cell_angle_gamma                   90.4442

loop_
_atom_site_label
_atom_site_type_symbol
_atom_site_fract_x
_atom_site_fract_y
_atom_site_fract_z
_atom_site_charge
  Ge     Ge        0.052090000000021    0.000000000000000    0.372269999999958  0.0000
  Ge     Ge        0.442303116063373    0.037909057385448    0.849373053269455  0.0000
  Ge     Ge        0.337761758552377    0.745851658067578    0.270258981535950  0.0000
  Si     Si        0.458522479564691    0.027196082277140    0.349579215757463  0.0000
  Si     Si        0.953649206433004    0.024820759037002    0.636660994079578  0.0000
  Si     Si        0.555145111417079    0.032571815085193    0.605628703368691  0.0000
  Si     Si        0.556257405560123    0.013151632769572    0.092905830225873  0.0000
  Si     Si        0.942424209812153    0.016256631193227    0.124921912557377  0.0000
  Si     Si        0.056379505170487    0.017371803362492    0.891458591984463  0.0000
  Si     Si        0.175641710856559    0.287712859111611    0.270914929447891  0.0000
  Si     Si        0.838879195447349    0.313239293859571    0.711830413290904  0.0000
  Si     Si        0.667737145079080    0.738942472769827    0.709881908674095  0.0000
  Si     Si        0.847353160780338    0.717279706209913    0.712156387125733  0.0000
  Si     Si        0.658636392174866    0.334799500309067    0.707488723396558  0.0000
  Si     Si        0.154608021910801    0.691578773504882    0.279678123141074  0.0000
  Si     Si        0.355493055581958    0.332683539947082    0.262820018725344  0.0000
  Si     Si        0.654020733712951    0.330563227906803    0.009960041821937  0.0000
  Si     Si        0.848037140871824    0.705052191841442    0.015729255293065  0.0000
  Si     Si        0.350429895389192    0.351939065006444    0.961861461608415  0.0000
  Si     Si        0.149831842493554    0.699539973428657    0.976479549656905  0.0000
  Si     Si        0.329901406798276    0.754230308354777    0.964355022029791  0.0000
  Si     Si        0.170621115889455    0.303478398658800    0.968259360886901  0.0000
  Si     Si        0.668055907164604    0.728926710732963    0.013532499554051  0.0000
  Si     Si        0.834810746354325    0.305865442169511    0.014686024568306  0.0000
  O3     O3        0.128032128313605    0.147989513713716    0.353716484324724  0.0000
  O3     O3        0.393386117735325    0.877583961810796    0.369030284261213  0.0000
  O2     O2        0.891597553084769    0.184446207522902    0.627752863768766  0.0000
  O2     O2        0.614156269918269    0.871165374915124    0.628431465723434  0.0000
  O2     O2        0.905757018742960    0.840573583232930    0.629623261352414  0.0000
  O2     O2        0.601073091531523    0.216567642731313    0.622788257322471  0.0000
  O3     O3        0.091027486887359    0.792250503577975    0.362309771393124  0.0000
  O2     O2        0.415631291897845    0.215288394112688    0.345696772224138  0.0000
  O3     O3        0.015810510283492    0.035623297643621    0.524613988674694  0.0000
  O2     O2        0.524540107153360    0.025150494117691    0.459010539407131  0.0000
  O3     O3        0.974080055778998    0.028067331980273    0.268893885428073  0.0000
  O2     O2        0.500053604141353    0.988523688757083    0.213707185547587  0.0000
  O2     O2        0.999238937790352    0.039699004907785    0.771804459918802  0.0000
  O3     O3        0.480194620487574    0.021877980815732    0.696471291457468  0.0000
  O2     O2        0.595841039471851    0.207393503029124    0.092890257810238  0.0000
  O2     O2        0.904993831964649    0.823610606842889    0.101573381002440  0.0000
  O3     O3        0.408068022804613    0.248843991784882    0.870479425526751  0.0000
  O2     O2        0.091397421107601    0.820604398182795    0.892612132665967  0.0000
  O3     O3        0.366342360228503    0.888334017490848    0.862157764173672  0.0000
  O2     O2        0.125681493039729    0.162277397844579    0.880522902295224  0.0000
  O2     O2        0.623089656019699    0.864631987741912    0.102483552321865  0.0000
  O2     O2        0.877282750649956    0.165446203426934    0.105677503973778  0.0000
  O3     O3        0.511407586817442    0.977642813900542    0.960791824040071  0.0000
  O2     O2        0.012539887668019    0.053985418352711    0.025555513062642  0.0000
  O2     O2        0.145270524731027    0.482709770869715    0.301862300130146  0.0000
  O3     O3        0.371547181049255    0.534066362379007    0.289310469084638  0.0000
  O2     O2        0.864521844518991    0.514187587998332    0.681374643459817  0.0000
  O2     O2        0.642042037158806    0.539572333333026    0.677724316471775  0.0000
  O2     O2        0.267467319324598    0.278370034279596    0.305020014867903  0.0000
  O3     O3        0.241317697638526    0.752685016547146    0.317486761926030  0.0000
  O2     O2        0.747985805034003    0.288479151157814    0.674326462822136  0.0000
  O2     O2        0.758590239821985    0.765530659488592    0.673091153014894  0.0000
  O2     O2        0.164016972411986    0.246548046781827    0.118864498272084  0.0000
  O3     O3        0.345081640457034    0.816368716346831    0.110560065073989  0.0000
  O2     O2        0.849447758087555    0.265649016818151    0.863751001116678  0.0000
  O2     O2        0.657018492212882    0.777208748452760    0.861797717082791  0.0000
  O2     O2        0.861290532079910    0.752045331754851    0.864452372689279  0.0000
  O2     O2        0.640093150566983    0.291137706272198    0.858051904280620  0.0000
  O2     O2        0.138700745832284    0.740543307763340    0.128185286871526  0.0000
  O2     O2        0.366529991840521    0.289996166967275    0.110313237463907  0.0000
  O2     O2        0.634781839308176    0.532478596571163    0.040485772495641  0.0000
  O2     O2        0.867208040819823    0.501065879880792    0.045154060190988  0.0000
  O2     O2        0.366360961184468    0.559856967639717    0.948454265311578  0.0000
  O2     O2        0.131906802019104    0.495385775194181    0.946888679638736  0.0000
  O2     O2        0.743292709677854    0.291096101488268    0.046723298817352  0.0000
  O2     O2        0.758649029711425    0.741194804268765    0.052583662256401  0.0000
  O2     O2        0.260672649941440    0.307660466807487    0.924516434853209  0.0000
  O2     O2        0.237753674213831    0.744680330740091    0.935933943164918  0.0000
