data_c00056.vasp
_audit_creation_method             Generated by GULP
_audit_author_name                 Salvador R. G. Balestra
_symmetry_space_group_name_H-M     'P 1             '
_symmetry_Int_Tables_number        1

loop_
_symmetry_equiv_pos_site_id
_symmetry_equiv_pos_as_xyz
_cell_length_a                       17.0818
_cell_length_b                        7.6128
_cell_length_c                       10.2853
_cell_angle_alpha                   89.9501
_cell_angle_beta                    90.1348
_cell_angle_gamma                   89.3942

loop_
_atom_site_label
_atom_site_type_symbol
_atom_site_fract_x
_atom_site_fract_y
_atom_site_fract_z
_atom_site_charge
  Ge     Ge        0.052090000000021    0.000000000000000    0.372269999999958  0.0000
  Ge     Ge        0.056367042249739    0.000283623789890    0.894508021168054  0.0000
  Ge     Ge        0.333366026955914    0.260149037483233    0.961752573063802  0.0000
  Si     Si        0.453913137736721    0.974044084976728    0.360224731848072  0.0000
  Si     Si        0.952719371494172    0.982603797477544    0.635161910520405  0.0000
  Si     Si        0.554633813068215    0.978582619658955    0.617845601337259  0.0000
  Si     Si        0.555450406952338    0.991258289981540    0.106502817255936  0.0000
  Si     Si        0.941729503119719    0.983869480151862    0.130838147430467  0.0000
  Si     Si        0.446015838841139    0.975436265455952    0.866535649330803  0.0000
  Si     Si        0.157119851310348    0.307644866445051    0.269349345099520  0.0000
  Si     Si        0.354539573970225    0.665542812681856    0.270992966526343  0.0000
  Si     Si        0.847519585256884    0.290450520518145    0.710829733492198  0.0000
  Si     Si        0.658472466662829    0.673410328989081    0.702959741928595  0.0000
  Si     Si        0.839216888207987    0.693449039304439    0.708432807791322  0.0000
  Si     Si        0.666455556716661    0.270397696748625    0.707807851715092  0.0000
  Si     Si        0.175130370962323    0.713214400164005    0.270687197439693  0.0000
  Si     Si        0.336190187489958    0.260938771902193    0.271598298069153  0.0000
  Si     Si        0.665933250050676    0.276516881562193    0.010980566585952  0.0000
  Si     Si        0.834470800767772    0.697329660603501    0.012264686771606  0.0000
  Si     Si        0.176930113928758    0.717471889293124    0.970076545977457  0.0000
  Si     Si        0.357984287919464    0.659479464370399    0.968558710202348  0.0000
  Si     Si        0.151211095538206    0.322012436354756    0.966336718103193  0.0000
  Si     Si        0.653545575691426    0.677042888817703    0.005801260774141  0.0000
  Si     Si        0.847054799378491    0.296635433185253    0.013907226483318  0.0000
  O3     O3        0.094229431292163    0.203007268908939    0.351177321903704  0.0000
  O2     O2        0.414288092254547    0.782087206115409    0.354833544758038  0.0000
  O2     O2        0.904951618603843    0.167903260336670    0.626784446493237  0.0000
  O2     O2        0.602886549354758    0.795277884762852    0.614456027504450  0.0000
  O2     O2        0.890943321803879    0.822548464285481    0.621132513919810  0.0000
  O2     O2        0.615511040263350    0.139210683383894    0.621530558804575  0.0000
  O3     O3        0.123678036736790    0.840595975036343    0.357531486201349  0.0000
  O2     O2        0.387129350795074    0.125137294314978    0.357483150119069  0.0000
  O3     O3        0.019794016722890    0.980706714763646    0.530164176822204  0.0000
  O2     O2        0.501004954341773    0.993228007151677    0.492587668343821  0.0000
  O3     O3        0.969011664400704    0.976128808470782    0.278755344183521  0.0000
  O2     O2        0.515789463402447    0.999230333208604    0.245616885750382  0.0000
  O3     O3        0.991007483350338    0.956961966715113    0.775643752875087  0.0000
  O2     O2        0.499231657605189    0.987659523128627    0.741621635859744  0.0000
  O2     O2        0.620830283925281    0.141953875163411    0.102311010197150  0.0000
  O2     O2        0.878464027722202    0.833167307538993    0.103479009838475  0.0000
  O3     O3        0.373857949722420    0.108898775875916    0.857742174674193  0.0000
  O3     O3        0.137407396662881    0.861763602181324    0.880643637340687  0.0000
  O2     O2        0.414712833644540    0.777674905532161    0.881661615203452  0.0000
  O3     O3        0.087325037532002    0.215605203719912    0.886786350969096  0.0000
  O2     O2        0.594917048345328    0.799543890839590    0.086941789323872  0.0000
  O2     O2        0.904343466092830    0.175916655032288    0.099253015713771  0.0000
  O2     O2        0.492718907963395    0.036087725008705    0.995165636723383  0.0000
  O3     O3        0.017394430950134    0.951054298429952    0.044180755882043  0.0000
  O2     O2        0.143714884804027    0.515518203258638    0.288490034108036  0.0000
  O2     O2        0.368771453336050    0.457984522936598    0.294049768461143  0.0000
  O2     O2        0.865745133007353    0.493164696287687    0.679504058547260  0.0000
  O2     O2        0.640611014478620    0.469857514419911    0.674437422455242  0.0000
  O2     O2        0.245191337348132    0.254012528129678    0.314458720451911  0.0000
  O2     O2        0.266341084211738    0.717971481173741    0.312118527932487  0.0000
  O2     O2        0.758073220220443    0.245083460462948    0.675333027995095  0.0000
  O2     O2        0.748295951166798    0.716746861068410    0.670198559868024  0.0000
  O2     O2        0.146573045413444    0.259480229962229    0.117316754184011  0.0000
  O2     O2        0.369616888976521    0.709806815194512    0.120009899960015  0.0000
  O2     O2        0.863568874453203    0.252769618982357    0.863123374073831  0.0000
  O2     O2        0.640939646475474    0.717198921969122    0.853490198629439  0.0000
  O2     O2        0.849797575437134    0.738828055676688    0.860853659313710  0.0000
  O2     O2        0.652976768458506    0.228875067921241    0.859790466536975  0.0000
  O2     O2        0.168658496443951    0.775283453975000    0.120920955735411  0.0000
  O3     O3        0.342024595216125    0.202367514545971    0.123002207566440  0.0000
  O2     O2        0.634816533474766    0.474302406864424    0.037387627088546  0.0000
  O2     O2        0.865214006694103    0.500201178344889    0.043753144767653  0.0000
  O3     O3        0.379140444607031    0.460013477218790    0.941948347734402  0.0000
  O2     O2        0.134530597054328    0.529786724190838    0.952016463530686  0.0000
  O2     O2        0.757121689659975    0.258637663219533    0.047279847385510  0.0000
  O2     O2        0.742815656664725    0.716331574595489    0.044236190916442  0.0000
  O3     O3        0.237118040161865    0.275744759422754    0.915052086831022  0.0000
  O2     O2        0.267566763707576    0.695992877930508    0.931186106605752  0.0000
