data_c00099.vasp
_audit_creation_method             Generated by GULP
_audit_author_name                 Salvador R. G. Balestra
_symmetry_space_group_name_H-M     'P 1             '
_symmetry_Int_Tables_number        1

loop_
_symmetry_equiv_pos_site_id
_symmetry_equiv_pos_as_xyz
_cell_length_a                       17.2253
_cell_length_b                        7.6446
_cell_length_c                       10.1945
_cell_angle_alpha                   90.4544
_cell_angle_beta                    90.4055
_cell_angle_gamma                   90.5530

loop_
_atom_site_label
_atom_site_type_symbol
_atom_site_fract_x
_atom_site_fract_y
_atom_site_fract_z
_atom_site_charge
  Ge     Ge        0.052090000000021    0.000000000000000    0.372269999999958  0.0000
  Ge     Ge        0.651684865027240    0.671738488351533    0.713994767604231  0.0000
  Ge     Ge        0.829270162489965    0.706288322847171    0.035724386702740  0.0000
  Si     Si        0.450952524453580    0.000777705597625    0.375476739238243  0.0000
  Si     Si        0.946730982274023    0.995396638913282    0.629475607800700  0.0000
  Si     Si        0.545123048536592    0.977620176232509    0.638387460843663  0.0000
  Si     Si        0.553606244330447    0.986282006564042    0.127265877148635  0.0000
  Si     Si        0.942271032543904    0.999645584178883    0.116299442924239  0.0000
  Si     Si        0.438218473853756    0.998586249016216    0.889582857687145  0.0000
  Si     Si        0.050925841689998    0.988990539486468    0.877250758879530  0.0000
  Si     Si        0.162085607034622    0.300294984375864    0.293416386790920  0.0000
  Si     Si        0.344243371155879    0.696825624647659    0.280921176674941  0.0000
  Si     Si        0.841909494777848    0.296574662250941    0.727700489034103  0.0000
  Si     Si        0.831748365961387    0.701680984602159    0.721307798082480  0.0000
  Si     Si        0.663109573789708    0.264124314798327    0.721246432667914  0.0000
  Si     Si        0.164755372659534    0.704941658028719    0.290500471704394  0.0000
  Si     Si        0.340767215253357    0.295289650601896    0.280146873392332  0.0000
  Si     Si        0.662891989057273    0.277796344361358    0.027608431759579  0.0000
  Si     Si        0.331698510660336    0.292832888099639    0.973304535297027  0.0000
  Si     Si        0.157458701652140    0.698922360493751    0.986286739107677  0.0000
  Si     Si        0.337418262284537    0.690941812501633    0.975230135060415  0.0000
  Si     Si        0.152578970492374    0.295995654887029    0.988483537167047  0.0000
  Si     Si        0.649099796159590    0.675169628990142    0.029358945207502  0.0000
  Si     Si        0.842768073437225    0.305477643454253    0.032421036424637  0.0000
  O3     O3        0.109110407352094    0.186647394586060    0.386930198079288  0.0000
  O2     O2        0.400504700147904    0.822940560376079    0.364210885099295  0.0000
  O2     O2        0.900020689170491    0.176126159773428    0.645896360633667  0.0000
  O3     O3        0.583007969243448    0.788448803282110    0.629356865816403  0.0000
  O2     O2        0.890729592685804    0.827721522880539    0.644945604751709  0.0000
  O2     O2        0.616692847143285    0.115945089874969    0.640275066357165  0.0000
  O3     O3        0.113436360990979    0.822835220979535    0.383193956470153  0.0000
  O2     O2        0.396617765680485    0.168805044457328    0.359727988801537  0.0000
  O3     O3        0.979406269859297    0.991259878734867    0.484224196293862  0.0000
  O2     O2        0.488213815363585    0.012845242895467    0.518279556003298  0.0000
  O3     O3        0.009928578746404    0.000326875713595    0.219656081843312  0.0000
  O2     O2        0.520476396466865    0.000775020499773    0.272472255774304  0.0000
  O2     O2        0.020465915787993    0.988591981598034    0.728084027467357  0.0000
  O2     O2        0.494999303770299    0.002166260633287    0.768512955603436  0.0000
  O2     O2        0.619916314243106    0.134946908926327    0.115375791357983  0.0000
  O3     O3        0.880756041867304    0.844862884077087    0.136750853180564  0.0000
  O2     O2        0.379185072453728    0.160977422914842    0.881906676410606  0.0000
  O2     O2        0.107568407817729    0.824287214611710    0.894429151116729  0.0000
  O2     O2        0.389585556658022    0.816824855550290    0.886244535986175  0.0000
  O2     O2        0.095627454414399    0.172130403702177    0.904181152401546  0.0000
  O2     O2        0.587837240569516    0.792793971858974    0.108153206902558  0.0000
  O2     O2        0.895656750751796    0.181860149460653    0.121203036145606  0.0000
  O2     O2        0.486071590961316    0.021449436851900    0.023288043675975  0.0000
  O2     O2        0.977641499142969    0.966544602952998    0.971390305817884  0.0000
  O2     O2        0.143747818139501    0.503311759752176    0.316736307102475  0.0000
  O2     O2        0.364665472237924    0.495956092943319    0.311905638323380  0.0000
  O2     O2        0.861358591129341    0.501162035830804    0.706723861063651  0.0000
  O3     O3        0.630217368311499    0.453063661245409    0.689778503348857  0.0000
  O2     O2        0.252345829865451    0.261942245971410    0.323936341502258  0.0000
  O2     O2        0.255851512571296    0.737749724904850    0.319340617362253  0.0000
  O2     O2        0.753734222461113    0.256596111785357    0.681274461176741  0.0000
  O3     O3        0.745515850579233    0.713314616618362    0.662450514991038  0.0000
  O2     O2        0.143780250987863    0.249039502436881    0.141477958134902  0.0000
  O2     O2        0.356372537003564    0.733488442737918    0.127066947065855  0.0000
  O2     O2        0.851865188590319    0.249861561567797    0.880264572440391  0.0000
  O3     O3        0.645808996626401    0.726809843640144    0.877699519793043  0.0000
  O3     O3        0.829622128160521    0.759872488031910    0.872289961251877  0.0000
  O2     O2        0.655692362371798    0.222581559837350    0.875640952223218  0.0000
  O2     O2        0.146395023806680    0.752124039931024    0.138438069953049  0.0000
  O2     O2        0.348315357494362    0.254685929267361    0.125796744669560  0.0000
  O2     O2        0.626030443866068    0.469914976568692    0.046783954594000  0.0000
  O3     O3        0.869390946666867    0.502046203954788    0.055908568773834  0.0000
  O2     O2        0.357870646372548    0.490783369077299    0.940067389341263  0.0000
  O2     O2        0.130081265767167    0.497957788323216    0.963718100148419  0.0000
  O2     O2        0.752603901624909    0.283707519200737    0.072162173724093  0.0000
  O3     O3        0.734303346402596    0.707646901893656    0.087103922521524  0.0000
  O2     O2        0.240646473515570    0.265118151806694    0.942845419933187  0.0000
  O2     O2        0.246953495002147    0.723213142538886    0.946293303611795  0.0000
