data_c00061.vasp
_audit_creation_method             Generated by GULP
_audit_author_name                 Salvador R. G. Balestra
_symmetry_space_group_name_H-M     'P 1             '
_symmetry_Int_Tables_number        1

loop_
_symmetry_equiv_pos_site_id
_symmetry_equiv_pos_as_xyz
_cell_length_a                       17.2395
_cell_length_b                        7.6328
_cell_length_c                       10.2494
_cell_angle_alpha                   90.9730
_cell_angle_beta                    90.8769
_cell_angle_gamma                   89.2760

loop_
_atom_site_label
_atom_site_type_symbol
_atom_site_fract_x
_atom_site_fract_y
_atom_site_fract_z
_atom_site_charge
  Ge     Ge        0.052090000000021    0.000000000000000    0.372269999999958  0.0000
  Ge     Ge        0.157908100414055    0.305996589028336    0.276740739695084  0.0000
  Ge     Ge        0.837629262468947    0.668708008605295    0.699971147037024  0.0000
  Si     Si        0.455864220227159    0.970551620604008    0.354678121656133  0.0000
  Si     Si        0.952315673088405    0.958710147252986    0.629898879453814  0.0000
  Si     Si        0.547011254592757    0.963225685921655    0.623359254636931  0.0000
  Si     Si        0.559098295840996    0.974880399448223    0.109096747744653  0.0000
  Si     Si        0.942674473663115    0.969707696477720    0.122699598100107  0.0000
  Si     Si        0.441082356090814    0.960659692352253    0.872365830139571  0.0000
  Si     Si        0.054260113473533    0.975495977938136    0.886822442604103  0.0000
  Si     Si        0.352044020426878    0.665826538101854    0.258793057454721  0.0000
  Si     Si        0.840680933783621    0.257727663370358    0.704688487630646  0.0000
  Si     Si        0.655580815369885    0.659345238719349    0.701195206313972  0.0000
  Si     Si        0.660984868440221    0.254762474567963    0.705930252893402  0.0000
  Si     Si        0.173862050186185    0.713390838274693    0.264707476056100  0.0000
  Si     Si        0.339488961020678    0.264869710445489    0.266966404735531  0.0000
  Si     Si        0.664092504628725    0.266156087021888    0.010012747049482  0.0000
  Si     Si        0.837982066211808    0.676010134307312    0.010628540863925  0.0000
  Si     Si        0.330774740857796    0.254670988692336    0.959957726999582  0.0000
  Si     Si        0.167798158601611    0.686101324512005    0.959318934738215  0.0000
  Si     Si        0.345942062719758    0.650616074045594    0.954049367028366  0.0000
  Si     Si        0.152432920312947    0.287429077063220    0.965722294295449  0.0000
  Si     Si        0.659227132335858    0.664664143301175    0.007776277318552  0.0000
  Si     Si        0.843268065604976    0.273905454533606    0.009408441144191  0.0000
  O1     O1        0.090107965762392    0.204656509087267    0.366331335849874  0.0000
  O2     O2        0.411899204924641    0.787014904733869    0.337610399760599  0.0000
  O2     O2        0.893762576130455    0.125769983638461    0.620586883579638  0.0000
  O2     O2        0.593570584834742    0.778585015744046    0.623664712268811  0.0000
  O3     O3        0.899522409169433    0.789078961565721    0.609322161461089  0.0000
  O2     O2        0.607666877183560    0.122389180391151    0.623217397371304  0.0000
  O3     O3        0.131095387596988    0.864835055091082    0.342918348167432  0.0000
  O2     O2        0.396002411824140    0.132656636282486    0.342979430665125  0.0000
  O3     O3        0.019254910204190    0.964355922813541    0.526731761683718  0.0000
  O2     O2        0.493377276076721    0.975693224446073    0.496976121890595  0.0000
  O3     O3        0.973913256948887    0.967181932620285    0.268764244751501  0.0000
  O2     O2        0.524425850214177    0.984559663178342    0.252059876043845  0.0000
  O2     O2        0.991667579917770    0.954820585033719    0.773021080444970  0.0000
  O2     O2        0.491950018546034    0.980904513406200    0.746541811833123  0.0000
  O2     O2        0.616848482892471    0.137417612327323    0.099105427310935  0.0000
  O2     O2        0.886454622516111    0.804403228239372    0.104634368197373  0.0000
  O2     O2        0.374280860234057    0.109910247283571    0.872506561394840  0.0000
  O2     O2        0.118862578008810    0.821323347861348    0.871697879463892  0.0000
  O2     O2        0.402177869478174    0.768717722417562    0.869239157088519  0.0000
  O2     O2        0.094467212116389    0.165550785964030    0.879933184572418  0.0000
  O2     O2        0.604843357033383    0.791475534477190    0.092284512901428  0.0000
  O2     O2        0.897445253853093    0.153040613286051    0.098903920736153  0.0000
  O2     O2        0.491621892420624    0.991320607930567    0.002153393452887  0.0000
  O2     O2        0.014649296313835    0.951999348111919    0.025992281716239  0.0000
  O3     O3        0.140072126791482    0.526551276632827    0.299217412468394  0.0000
  O2     O2        0.370078605710612    0.463007429671377    0.289245476369354  0.0000
  O3     O3        0.863245231108949    0.452720606269907    0.672827646240253  0.0000
  O2     O2        0.636449344575161    0.454693320883403    0.675757183074781  0.0000
  O3     O3        0.252921548262640    0.252805260916493    0.318707046221661  0.0000
  O2     O2        0.265159101473604    0.714481389976197    0.302350765978424  0.0000
  O2     O2        0.750501180166542    0.223985323344523    0.667619787065535  0.0000
  O3     O3        0.741498032294291    0.698429677240136    0.654897405648949  0.0000
  O3     O3        0.142421581426304    0.242722489111658    0.115651730840036  0.0000
  O2     O2        0.360394278781639    0.701060307894772    0.105321771685694  0.0000
  O2     O2        0.854240946121736    0.220952064542993    0.858309668290099  0.0000
  O2     O2        0.649262012687923    0.706086040745112    0.855058287538682  0.0000
  O3     O3        0.848323736364355    0.728351899550006    0.862215606655601  0.0000
  O2     O2        0.651154571036458    0.214463898800966    0.858520971885068  0.0000
  O2     O2        0.163437754972979    0.744700915205782    0.110054274340084  0.0000
  O2     O2        0.339816538563800    0.215664010669644    0.113155460364144  0.0000
  O2     O2        0.635060549944463    0.465396923372841    0.035445354238478  0.0000
  O2     O2        0.867317618674022    0.475906242419626    0.031780661686342  0.0000
  O2     O2        0.365309526241318    0.445647391096997    0.928711427206715  0.0000
  O2     O2        0.132439490501138    0.491808130775815    0.940240531141024  0.0000
  O2     O2        0.754407328494715    0.247506684059272    0.048852972669427  0.0000
  O2     O2        0.748158759919215    0.693802870856716    0.050108641587469  0.0000
  O2     O2        0.240309599175215    0.248578486476160    0.921153533811314  0.0000
  O2     O2        0.256673385412172    0.688449008787024    0.913560019775477  0.0000
