data_c00027.vasp
_audit_creation_method             Generated by GULP
_audit_author_name                 Salvador R. G. Balestra
_symmetry_space_group_name_H-M     'P 1             '
_symmetry_Int_Tables_number        1

loop_
_symmetry_equiv_pos_site_id
_symmetry_equiv_pos_as_xyz
_cell_length_a                       17.0349
_cell_length_b                        7.5702
_cell_length_c                       10.3582
_cell_angle_alpha                   90.8519
_cell_angle_beta                    90.5429
_cell_angle_gamma                   89.4962

loop_
_atom_site_label
_atom_site_type_symbol
_atom_site_fract_x
_atom_site_fract_y
_atom_site_fract_z
_atom_site_charge
  Ge     Ge        0.052090000000021    0.000000000000000    0.372269999999958  0.0000
  Ge     Ge        0.557463952528487    0.033859736487816    0.135571599608566  0.0000
  Ge     Ge        0.648747558839720    0.359792569892139    0.036908081466919  0.0000
  Si     Si        0.455070443847599    0.007436965082829    0.383455068463379  0.0000
  Si     Si        0.951169002569525    0.990038405311039    0.633176047579295  0.0000
  Si     Si        0.550428710232219    0.010241412339783    0.644092564063863  0.0000
  Si     Si        0.947316488534097    0.013662444014827    0.111273202874948  0.0000
  Si     Si        0.445276562107098    0.997452869689012    0.892257284373202  0.0000
  Si     Si        0.058869854234309    0.996557308651836    0.877218373201352  0.0000
  Si     Si        0.173156808731622    0.278552358129805    0.285118783640819  0.0000
  Si     Si        0.338146784960135    0.721894581516046    0.283366237907398  0.0000
  Si     Si        0.831857255422260    0.282504440548669    0.732448169826497  0.0000
  Si     Si        0.669699672493182    0.727534043243211    0.720715923564523  0.0000
  Si     Si        0.850122413622145    0.685497929804508    0.721337423986852  0.0000
  Si     Si        0.653233531658738    0.320117573792850    0.730224434114995  0.0000
  Si     Si        0.157600639940610    0.687457618744404    0.288246264477989  0.0000
  Si     Si        0.354260164247043    0.315959400953592    0.281240614055988  0.0000
  Si     Si        0.855132552053489    0.693757735645194    0.021434869167081  0.0000
  Si     Si        0.351233554474510    0.316781465979106    0.981771525808340  0.0000
  Si     Si        0.152270920359440    0.684048523081600    0.988936443746897  0.0000
  Si     Si        0.333629458741285    0.716931144370492    0.981841113975013  0.0000
  Si     Si        0.169155693379076    0.280149968773938    0.986053806739012  0.0000
  Si     Si        0.674094817725577    0.760680824476514    0.020829791209244  0.0000
  Si     Si        0.831226476968713    0.302372159630073    0.036314942793001  0.0000
  O3     O3        0.126342280098359    0.155353153988893    0.378418615817667  0.0000
  O2     O2        0.389232847334706    0.856882181040306    0.368173792459655  0.0000
  O2     O2        0.885387999056736    0.138744591384261    0.660969507044729  0.0000
  O2     O2        0.617143655678397    0.856965602031577    0.632499081211887  0.0000
  O2     O2        0.910207398592043    0.797858529633221    0.637031686820730  0.0000
  O2     O2        0.592015444481454    0.201037128407814    0.647898835276508  0.0000
  O3     O3        0.097748210874426    0.795407528332648    0.375974690858003  0.0000
  O2     O2        0.415849425056794    0.200318145195513    0.362092936486801  0.0000
  O3     O3        0.985720106112337    0.020891519247874    0.493952379861836  0.0000
  O2     O2        0.490859439650770    0.000026540322997    0.525400203094224  0.0000
  O3     O3        0.002032917528252    0.041130531417128    0.232132512811566  0.0000
  O3     O3        0.525015467914784    0.976674558345499    0.284746745348356  0.0000
  O2     O2        0.024073204176798    0.001462571345916    0.733352050803069  0.0000
  O2     O2        0.498749152310812    0.975413456478296    0.768823496810474  0.0000
  O1     O1        0.580675198424744    0.251850389555877    0.125315806297215  0.0000
  O2     O2        0.911563726490345    0.816204152070712    0.108527691404335  0.0000
  O2     O2        0.408212276006654    0.195758523989063    0.894758156726698  0.0000
  O2     O2        0.093652650796923    0.800659467481095    0.902626797760221  0.0000
  O2     O2        0.375289502382476    0.853905135994460    0.889091529488753  0.0000
  O2     O2        0.127049768669611    0.142540039587591    0.889944685250561  0.0000
  O3     O3        0.645551426483730    0.924401048123341    0.103936387189250  0.0000
  O2     O2        0.876917793328050    0.156523798768936    0.118698212558184  0.0000
  O3     O3        0.493408742373035    0.956275563335248    0.020101199697389  0.0000
  O2     O2        0.992497555057131    0.048808683556274    0.978809918672887  0.0000
  O2     O2        0.146426762668720    0.480458540509970    0.310082760081542  0.0000
  O2     O2        0.367284928009751    0.522620603555941    0.312269354341367  0.0000
  O2     O2        0.864748912978984    0.476538079877836    0.699037606368654  0.0000
  O2     O2        0.638225411754632    0.527910164082174    0.704274262198612  0.0000
  O2     O2        0.266060297911680    0.260248839978003    0.314112403046318  0.0000
  O2     O2        0.247096803554933    0.743028871897272    0.321318266343399  0.0000
  O2     O2        0.741482308848358    0.267996152155060    0.685014229105650  0.0000
  O2     O2        0.760919485529694    0.734642494866380    0.679955393062098  0.0000
  O2     O2        0.157100224362213    0.225484012673828    0.134733951489207  0.0000
  O2     O2        0.348200323221655    0.764976825127435    0.132508321121404  0.0000
  O2     O2        0.831106394998924    0.249646216363890    0.884870732348029  0.0000
  O2     O2        0.663318022422998    0.795398830093136    0.867939962956462  0.0000
  O2     O2        0.867366742219273    0.736176785570451    0.870640857092792  0.0000
  O3     O3        0.639730246835490    0.282323207531775    0.879227217276541  0.0000
  O2     O2        0.138656069540391    0.735301956800547    0.138860805088943  0.0000
  O2     O2        0.372194891200526    0.275119559932985    0.130800760420513  0.0000
  O3     O3        0.628239640218764    0.581970996547291    0.052134451160634  0.0000
  O2     O2        0.875667309289635    0.490684486813131    0.052625249556312  0.0000
  O2     O2        0.367831606368596    0.520828794257881    0.951927423404182  0.0000
  O2     O2        0.134763284392427    0.477212209462524    0.963544489124014  0.0000
  O3     O3        0.743882931903610    0.316418044857457    0.087761709650279  0.0000
  O2     O2        0.765022959890814    0.727523465223904    0.055916556896096  0.0000
  O2     O2        0.260898533381502    0.273262372539632    0.952503430687103  0.0000
  O2     O2        0.241317612501094    0.724552806234440    0.950310594465256  0.0000
