data_c00054.vasp
_audit_creation_method             Generated by GULP
_audit_author_name                 Salvador R. G. Balestra
_symmetry_space_group_name_H-M     'P 1             '
_symmetry_Int_Tables_number        1

loop_
_symmetry_equiv_pos_site_id
_symmetry_equiv_pos_as_xyz
_cell_length_a                       17.1885
_cell_length_b                        7.6325
_cell_length_c                       10.1960
_cell_angle_alpha                   89.9507
_cell_angle_beta                    90.0762
_cell_angle_gamma                   89.9740

loop_
_atom_site_label
_atom_site_type_symbol
_atom_site_fract_x
_atom_site_fract_y
_atom_site_fract_z
_atom_site_charge
  Ge     Ge        0.052090000000021    0.000000000000000    0.372269999999958  0.0000
  Ge     Ge        0.061543335870550    0.997345229446423    0.889608795564365  0.0000
  Ge     Ge        0.672976382027371    0.275734661618758    0.021095788728874  0.0000
  Si     Si        0.452484753667471    0.983538856705771    0.360564147900853  0.0000
  Si     Si        0.951263750231723    0.999758701625120    0.635556509083570  0.0000
  Si     Si        0.554347779566922    0.988715554850454    0.617396351950791  0.0000
  Si     Si        0.562620790942083    0.989393842425667    0.112965504165035  0.0000
  Si     Si        0.947161029888562    0.996419361786406    0.124286990518981  0.0000
  Si     Si        0.453512336481905    0.994073996327563    0.871658445612620  0.0000
  Si     Si        0.161084918706814    0.301227722816451    0.267623228357398  0.0000
  Si     Si        0.349430253521833    0.679450286630507    0.280820774960287  0.0000
  Si     Si        0.845753749142599    0.307760889836006    0.702908784433592  0.0000
  Si     Si        0.658227211983867    0.685027697995760    0.711033128576341  0.0000
  Si     Si        0.837594691842904    0.707567744143134    0.704623845421560  0.0000
  Si     Si        0.668136606618683    0.278919654985354    0.708990765671869  0.0000
  Si     Si        0.171029045376131    0.709455775114577    0.267810237368653  0.0000
  Si     Si        0.340550913312636    0.277983275611031    0.276767128846217  0.0000
  Si     Si        0.838825791604070    0.706322038491637    0.011514666921707  0.0000
  Si     Si        0.343500834335141    0.283261545735467    0.970126170472124  0.0000
  Si     Si        0.178239044245967    0.711846987544283    0.964614699313833  0.0000
  Si     Si        0.357241896836850    0.680523281886917    0.973920744651289  0.0000
  Si     Si        0.163494994044472    0.309875086689324    0.965310280968706  0.0000
  Si     Si        0.657855616718825    0.679226004830635    0.015159240306156  0.0000
  Si     Si        0.853869996345390    0.310847812560333    0.012896923417459  0.0000
  O3     O3        0.101923431049713    0.194672447773264    0.355457054606892  0.0000
  O2     O2        0.405379104773399    0.800841037890590    0.368427914857011  0.0000
  O2     O2        0.905096187275921    0.184792613230207    0.623586541712569  0.0000
  O2     O2        0.600703591705721    0.804932391766286    0.625721502392204  0.0000
  O2     O2        0.888633516207460    0.841638531233466    0.619337526912532  0.0000
  O2     O2        0.613966135171531    0.151217399720646    0.623698707113333  0.0000
  O3     O3        0.115409221313067    0.826939595229301    0.354329808680783  0.0000
  O2     O2        0.391497902178163    0.144457045807451    0.362794711213867  0.0000
  O3     O3        0.019127023607411    0.989653185271519    0.531498143768769  0.0000
  O2     O2        0.511621915017907    0.998267434289126    0.479349171025422  0.0000
  O3     O3        0.969898901864637    0.992629510431327    0.275671398527262  0.0000
  O2     O2        0.501748599182389    0.990230315141880    0.228612576419765  0.0000
  O3     O3        0.988650932598408    0.980807881197553    0.778448923212557  0.0000
  O2     O2        0.488334246532822    0.001224115718484    0.727330334257129  0.0000
  O3     O3        0.627173134320734    0.137426205199930    0.128382974548971  0.0000
  O2     O2        0.880345521470338    0.852580923940347    0.098262120376692  0.0000
  O2     O2        0.388005075627250    0.143791591508309    0.881129650056145  0.0000
  O3     O3        0.132743469754432    0.838773550717022    0.869237066759164  0.0000
  O2     O2        0.417054760067076    0.802069275555587    0.895518501309073  0.0000
  O3     O3        0.106619936231187    0.199418791167643    0.875292450180559  0.0000
  O2     O2        0.604844495363472    0.801180511143117    0.106006535069108  0.0000
  O2     O2        0.918418966216907    0.190605324524652    0.081733466902714  0.0000
  O2     O2        0.520355488875891    0.036649553846699    0.976127778958318  0.0000
  O3     O3        0.023532356868337    0.953509568019756    0.042544661114309  0.0000
  O2     O2        0.145890840665013    0.507528937075106    0.284589939934594  0.0000
  O2     O2        0.366099379391918    0.475951336242898    0.312492969166094  0.0000
  O2     O2        0.865771679366657    0.510273336513242    0.672039144795318  0.0000
  O2     O2        0.639519730525896    0.479708902855944    0.690770888385153  0.0000
  O2     O2        0.249552166281236    0.252784319136721    0.308984187622053  0.0000
  O2     O2        0.260546730886316    0.728548086165347    0.314177940326454  0.0000
  O2     O2        0.757443259280373    0.264714999850778    0.659787699857464  0.0000
  O2     O2        0.746698866860030    0.726596516676169    0.668214551492320  0.0000
  O2     O2        0.147458246675586    0.248652122937342    0.115470341028955  0.0000
  O2     O2        0.366770510257152    0.717793914038288    0.128261557455747  0.0000
  O2     O2        0.854219861714640    0.272434057533204    0.857641243938472  0.0000
  O2     O2        0.645749062243956    0.733800407338878    0.863226475895873  0.0000
  O2     O2        0.848757872676918    0.750976178454958    0.858231811730392  0.0000
  O3     O3        0.664143056834249    0.217886796941390    0.858600714496957  0.0000
  O2     O2        0.165235021782129    0.769216704577945    0.116032293898459  0.0000
  O2     O2        0.354953631683197    0.238697124285750    0.123389827804021  0.0000
  O3     O3        0.633783934394990    0.482037030722161    0.040174663833493  0.0000
  O2     O2        0.875605896865001    0.514681184236438    0.039844003340691  0.0000
  O2     O2        0.376728382015510    0.477961005736554    0.942022684501336  0.0000
  O2     O2        0.146463339453233    0.514774446586940    0.945853208630802  0.0000
  O3     O3        0.769320954586873    0.270882942670271    0.068011224378320  0.0000
  O2     O2        0.748549751542943    0.704534958387973    0.051141952095189  0.0000
  O2     O2        0.253306634158733    0.271547985219495    0.930979615637226  0.0000
  O2     O2        0.269490811143635    0.722095626423777    0.929786610378563  0.0000
