data_c00021.vasp
_audit_creation_method             Generated by GULP
_audit_author_name                 Salvador R. G. Balestra
_symmetry_space_group_name_H-M     'P 1             '
_symmetry_Int_Tables_number        1

loop_
_symmetry_equiv_pos_site_id
_symmetry_equiv_pos_as_xyz
_cell_length_a                       17.0097
_cell_length_b                        7.5508
_cell_length_c                       10.4896
_cell_angle_alpha                   90.0573
_cell_angle_beta                    90.9972
_cell_angle_gamma                   89.9461

loop_
_atom_site_label
_atom_site_type_symbol
_atom_site_fract_x
_atom_site_fract_y
_atom_site_fract_z
_atom_site_charge
  Ge     Ge        0.052090000000021    0.000000000000000    0.372269999999958  0.0000
  Ge     Ge        0.560506287766929    0.977034515149850    0.124091192577324  0.0000
  Ge     Ge        0.441803300583271    0.978894847132946    0.880459684141639  0.0000
  Si     Si        0.456859159068815    0.979185775887599    0.369386195126186  0.0000
  Si     Si        0.951180380369554    0.994784196961364    0.633175980119094  0.0000
  Si     Si        0.549839625844341    0.979325086564240    0.631400061514353  0.0000
  Si     Si        0.944207028625552    0.989187910078255    0.117366911739931  0.0000
  Si     Si        0.054452205406657    0.990714905023092    0.886311603012441  0.0000
  Si     Si        0.155956418158143    0.309707127598139    0.283224923604171  0.0000
  Si     Si        0.355836936666868    0.671027691208375    0.266318989644758  0.0000
  Si     Si        0.850378820076927    0.304586472470041    0.716073652892472  0.0000
  Si     Si        0.651804253352162    0.669296932743130    0.720392176079041  0.0000
  Si     Si        0.832418315426032    0.709992819484751    0.719827420996960  0.0000
  Si     Si        0.668854610577734    0.260889250679889    0.716574437032345  0.0000
  Si     Si        0.175414876190910    0.718536331880679    0.276220713087767  0.0000
  Si     Si        0.336592296071503    0.262479135022931    0.271836607709191  0.0000
  Si     Si        0.674750343058301    0.254181864367486    0.011698097435623  0.0000
  Si     Si        0.831885193895043    0.706480954713728    0.017725992431072  0.0000
  Si     Si        0.325613361529329    0.256037947589666    0.976166395689659  0.0000
  Si     Si        0.168026178134378    0.709461882806768    0.980838879980720  0.0000
  Si     Si        0.349912949198990    0.655811037725540    0.971212221392278  0.0000
  Si     Si        0.144498730328080    0.309480090944493    0.988444431682564  0.0000
  Si     Si        0.650550889203970    0.654684239476453    0.016152811827200  0.0000
  Si     Si        0.856436645517004    0.309598142090591    0.012086711195431  0.0000
  O3     O3        0.096338269587110    0.205937038769592    0.370706804592229  0.0000
  O2     O2        0.418923403215365    0.785058642907742    0.346409608978345  0.0000
  O2     O2        0.909285296617525    0.187906975787372    0.631943453177243  0.0000
  O2     O2        0.590157761302318    0.785174199053373    0.637985176744846  0.0000
  O2     O2        0.882590454807237    0.847046958833638    0.638544466487106  0.0000
  O2     O2        0.618236462935378    0.128920174968893    0.627392903143110  0.0000
  O3     O3        0.128067198634608    0.848472794438056    0.364422514423132  0.0000
  O2     O2        0.389780022088019    0.129675994478690    0.355257964589860  0.0000
  O3     O3        0.001928757135245    0.969421025254407    0.510197051676470  0.0000
  O2     O2        0.492658398638827    0.988999721182332    0.510268567761258  0.0000
  O3     O3        0.983282192955013    0.967299321467709    0.253484416575972  0.0000
  O3     O3        0.528043668941780    0.008754209357005    0.275561901010076  0.0000
  O2     O2        0.009848502284798    0.972740351007066    0.753168244286614  0.0000
  O3     O3        0.495914638857524    0.019412648029606    0.749885292984139  0.0000
  O3     O3        0.641829628143198    0.110889790572066    0.104932996343272  0.0000
  O2     O2        0.870736051368723    0.854262948726529    0.107550619436960  0.0000
  O3     O3        0.359599384098438    0.115257390813554    0.881394171977693  0.0000
  O2     O2        0.126869711647832    0.851948562921034    0.888214627246580  0.0000
  O3     O3        0.407539550724870    0.762717882639975    0.882567923387368  0.0000
  O2     O2        0.085088638954971    0.192234302209389    0.903069647606968  0.0000
  O3     O3        0.590106481247170    0.759610378739772    0.100574357748498  0.0000
  O2     O2        0.914500310328412    0.191632577872408    0.098974683442015  0.0000
  O1     O1        0.491829931462808    0.040138914604926    0.015027320833905  0.0000
  O2     O2        0.001350012166702    0.934439811243622    0.004006044630100  0.0000
  O2     O2        0.147087367776155    0.518850795830502    0.303974414735176  0.0000
  O2     O2        0.367664985660271    0.462722730577065    0.294018919023013  0.0000
  O2     O2        0.862247430515182    0.512060532864813    0.687033293317674  0.0000
  O2     O2        0.638804778387338    0.461499066017697    0.692844333171268  0.0000
  O2     O2        0.245871559068437    0.249683894987447    0.313347999690476  0.0000
  O2     O2        0.268652508095334    0.731390599966055    0.304969403758502  0.0000
  O2     O2        0.760783829166328    0.248314529281616    0.682917559030528  0.0000
  O2     O2        0.740085248636177    0.725562743437822    0.683534156118039  0.0000
  O2     O2        0.132464620879005    0.260212063654395    0.136777502175686  0.0000
  O2     O2        0.370934397666635    0.711769613178914    0.117606221821839  0.0000
  O2     O2        0.871705657445907    0.266475782312667    0.863885434291882  0.0000
  O2     O2        0.634993767903385    0.711229456227249    0.868464171301853  0.0000
  O2     O2        0.842524212161668    0.754052003621020    0.869272695272385  0.0000
  O2     O2        0.658300301890816    0.202645237728820    0.863430532961673  0.0000
  O2     O2        0.159639616297807    0.768776546683558    0.128011539021162  0.0000
  O2     O2        0.342911329254942    0.205893881145774    0.124316822443719  0.0000
  O2     O2        0.635424050249046    0.446307801539151    0.034953498312996  0.0000
  O2     O2        0.872462235759297    0.515530802861336    0.044006832865211  0.0000
  O2     O2        0.364262048069210    0.448034319053749    0.950350537576776  0.0000
  O2     O2        0.127664577141471    0.516695976398370    0.962258659610688  0.0000
  O2     O2        0.767102556185349    0.264472292023627    0.041735128192729  0.0000
  O2     O2        0.740508318285307    0.701064760106713    0.052783070645557  0.0000
  O2     O2        0.232732987138320    0.265453694221961    0.949956250060545  0.0000
  O2     O2        0.258887078464742    0.702558039652774    0.942782520887244  0.0000
