data_c00081.vasp
_audit_creation_method             Generated by GULP
_audit_author_name                 Salvador R. G. Balestra
_symmetry_space_group_name_H-M     'P 1             '
_symmetry_Int_Tables_number        1

loop_
_symmetry_equiv_pos_site_id
_symmetry_equiv_pos_as_xyz
_cell_length_a                       17.2204
_cell_length_b                        7.6407
_cell_length_c                       10.2056
_cell_angle_alpha                   89.6976
_cell_angle_beta                    89.9182
_cell_angle_gamma                   90.3629

loop_
_atom_site_label
_atom_site_type_symbol
_atom_site_fract_x
_atom_site_fract_y
_atom_site_fract_z
_atom_site_charge
  Ge     Ge        0.052090000000021    0.000000000000000    0.372269999999958  0.0000
  Ge     Ge        0.339101349222393    0.727088219687322    0.271556048010004  0.0000
  Ge     Ge        0.155112784813580    0.687840250565281    0.962138260814111  0.0000
  Si     Si        0.456082671192076    0.016651122305577    0.355027565666028  0.0000
  Si     Si        0.950704303327525    0.021796679154418    0.636160838260635  0.0000
  Si     Si        0.554101342368373    0.021712381387464    0.613077394021488  0.0000
  Si     Si        0.557553285175084    0.009823685771161    0.097825044313795  0.0000
  Si     Si        0.943333750058432    0.011362218101723    0.124498595055361  0.0000
  Si     Si        0.445113651392295    0.015993643247667    0.856805347595583  0.0000
  Si     Si        0.055436347274433    0.999971040066443    0.885839180019133  0.0000
  Si     Si        0.172072200560096    0.288766649295244    0.271370548782933  0.0000
  Si     Si        0.838544178322127    0.313894928952495    0.707371254502441  0.0000
  Si     Si        0.664400730851747    0.725980571533583    0.711409425637934  0.0000
  Si     Si        0.843515925418740    0.715982171366678    0.711128991328272  0.0000
  Si     Si        0.659610007328958    0.323690750242422    0.708761136344940  0.0000
  Si     Si        0.157998494167683    0.696135082653354    0.273337186695641  0.0000
  Si     Si        0.351590751468679    0.318057492779597    0.269806258489168  0.0000
  Si     Si        0.658494471583069    0.319916115628023    0.015095742266420  0.0000
  Si     Si        0.844685674228632    0.705054712499624    0.017374820541357  0.0000
  Si     Si        0.348786500109356    0.321973615156574    0.965355243919315  0.0000
  Si     Si        0.336678945780713    0.722106757147348    0.957893891905268  0.0000
  Si     Si        0.169090804374118    0.283558576141199    0.968173676423362  0.0000
  Si     Si        0.665595422876859    0.717359684476409    0.017629627960553  0.0000
  Si     Si        0.837683195880990    0.306705131795936    0.013778936869513  0.0000
  O3     O3        0.121851712089941    0.162243812401148    0.360691440643168  0.0000
  O3     O3        0.395625976314116    0.858820952825021    0.368269678911054  0.0000
  O2     O2        0.892055816492910    0.186122585243663    0.622190031692980  0.0000
  O2     O2        0.610574292209960    0.855979958474377    0.629647167736705  0.0000
  O2     O2        0.900122801126682    0.842410747053724    0.628905698731702  0.0000
  O2     O2        0.603044202343132    0.200880839631848    0.625674488561019  0.0000
  O3     O3        0.094761274547248    0.798135349625245    0.357390028967995  0.0000
  O2     O2        0.407867040131977    0.196808805137106    0.355577472592729  0.0000
  O3     O3        0.015678005654297    0.021139973510008    0.528007300486047  0.0000
  O2     O2        0.519444084237426    0.017171143115941    0.468495452416571  0.0000
  O3     O3        0.973406363544035    0.024641998878969    0.270474380224059  0.0000
  O2     O2        0.500189230424827    0.992707857955539    0.218144246825281  0.0000
  O2     O2        0.993472009641065    0.040578709611376    0.775116790186604  0.0000
  O2     O2        0.482598417160725    0.014778496518644    0.713527030346769  0.0000
  O2     O2        0.603492852354238    0.194550219342404    0.101263818962208  0.0000
  O2     O2        0.899316461510942    0.826246021158019    0.104979885940599  0.0000
  O2     O2        0.402170121033727    0.201279777532567    0.874980348126293  0.0000
  O3     O3        0.090200336276070    0.807809603340188    0.870846004386517  0.0000
  O2     O2        0.385394921642117    0.854169690010832    0.866031819754082  0.0000
  O2     O2        0.127308747084007    0.137674455931249    0.879858645240957  0.0000
  O2     O2        0.617914018485437    0.849896640581810    0.106835311417417  0.0000
  O2     O2        0.885582001819441    0.172158713284738    0.100223525906309  0.0000
  O2     O2        0.511718578872567    0.990877919552098    0.963181322938471  0.0000
  O2     O2        0.016581113480082    0.022854548613332    0.028108372299014  0.0000
  O2     O2        0.143041943918530    0.487735708699880    0.284219360018473  0.0000
  O3     O3        0.372934002733169    0.517067888933844    0.293283381017072  0.0000
  O2     O2        0.863143948853021    0.514681283314383    0.678184727216341  0.0000
  O2     O2        0.640085909389590    0.526321436172857    0.679370616826836  0.0000
  O2     O2        0.262492800108154    0.279743499504189    0.311946089031372  0.0000
  O3     O3        0.244024756155007    0.741043395153112    0.323299480209991  0.0000
  O2     O2        0.748573955025806    0.285253690444243    0.669123747079016  0.0000
  O2     O2        0.754485274429395    0.756784120314828    0.673400789380678  0.0000
  O2     O2        0.162768232502818    0.228340723941783    0.120797253338225  0.0000
  O3     O3        0.341814856619288    0.783642014494765    0.107663237768032  0.0000
  O2     O2        0.849144072760843    0.267979101230451    0.860444280492753  0.0000
  O2     O2        0.653855991405086    0.763990287112453    0.865093123646865  0.0000
  O2     O2        0.857508421815946    0.751873154336961    0.864858648671451  0.0000
  O2     O2        0.646249523735181    0.280315927162127    0.861721720018991  0.0000
  O3     O3        0.149558575848974    0.754649000280948    0.122698855886320  0.0000
  O2     O2        0.361836065559522    0.268599823991173    0.116557805511589  0.0000
  O2     O2        0.636217966752048    0.519891350825818    0.046365997048701  0.0000
  O2     O2        0.867070181056147    0.503451906353286    0.044779453898150  0.0000
  O2     O2        0.371506023056814    0.525402185361682    0.945158655933194  0.0000
  O3     O3        0.130367195373615    0.470359073466044    0.945028546909950  0.0000
  O2     O2        0.747647553978154    0.285538055646805    0.052673665696236  0.0000
  O2     O2        0.755564261119929    0.736732100040721    0.055991557284025  0.0000
  O2     O2        0.259199683972733    0.293666242802651    0.925908789671364  0.0000
  O3     O3        0.248935682642490    0.721088360431445    0.908551351169747  0.0000
