data_c00039.vasp
_audit_creation_method             Generated by GULP
_audit_author_name                 Salvador R. G. Balestra
_symmetry_space_group_name_H-M     'P 1             '
_symmetry_Int_Tables_number        1

loop_
_symmetry_equiv_pos_site_id
_symmetry_equiv_pos_as_xyz
_cell_length_a                       17.1766
_cell_length_b                        7.6004
_cell_length_c                       10.2396
_cell_angle_alpha                   89.6422
_cell_angle_beta                    90.1154
_cell_angle_gamma                   90.1114

loop_
_atom_site_label
_atom_site_type_symbol
_atom_site_fract_x
_atom_site_fract_y
_atom_site_fract_z
_atom_site_charge
  Ge     Ge        0.052090000000021    0.000000000000000    0.372269999999958  0.0000
  Ge     Ge        0.939858238957250    0.003996355013561    0.111120787352876  0.0000
  Ge     Ge        0.346545045641022    0.337172481814649    0.967638874831503  0.0000
  Si     Si        0.450739057750635    0.014282378281135    0.372781611314401  0.0000
  Si     Si        0.947301878406518    0.998157082483854    0.629239670731170  0.0000
  Si     Si        0.549463047010594    0.007611032701152    0.633361836112657  0.0000
  Si     Si        0.550828813835907    0.013351506815898    0.119626434350069  0.0000
  Si     Si        0.440403065239452    0.020715671270729    0.878111568641295  0.0000
  Si     Si        0.051485427265110    0.012037045943259    0.872318955585630  0.0000
  Si     Si        0.170600081095872    0.286750770274734    0.285501604897794  0.0000
  Si     Si        0.335439594203640    0.726516699648415    0.281458657460960  0.0000
  Si     Si        0.831221287702375    0.286016820995815    0.731845184732877  0.0000
  Si     Si        0.664829548438277    0.720073177939824    0.716908147520406  0.0000
  Si     Si        0.843836371746468    0.692885055207142    0.728421119486457  0.0000
  Si     Si        0.652735615967986    0.316129022833801    0.719890828395819  0.0000
  Si     Si        0.156203348574486    0.691688823396969    0.293711259409152  0.0000
  Si     Si        0.350658363378296    0.321793432393889    0.277262203510611  0.0000
  Si     Si        0.644445277970883    0.328975147229896    0.024719206026253  0.0000
  Si     Si        0.841178563089438    0.686706946494051    0.032076389203133  0.0000
  Si     Si        0.147485402434722    0.702304938294014    0.991063900547318  0.0000
  Si     Si        0.327437294831683    0.742329997910858    0.975858772035652  0.0000
  Si     Si        0.162679998184892    0.299542258091543    0.981100358816556  0.0000
  Si     Si        0.661764888755809    0.725871523136977    0.021783038463226  0.0000
  Si     Si        0.822675590056213    0.288413346103925    0.035994812585188  0.0000
  O3     O3        0.124139723031616    0.159646445020276    0.380398929629385  0.0000
  O2     O2        0.386509788337328    0.859561622756198    0.366711521446917  0.0000
  O2     O2        0.886198660333340    0.155338229799023    0.652787944010021  0.0000
  O2     O2        0.613785389587623    0.852981105827416    0.629944958057715  0.0000
  O2     O2        0.904209042132196    0.809951624028950    0.645903603164377  0.0000
  O2     O2        0.593699763366494    0.195137923429746    0.638367478385693  0.0000
  O3     O3        0.098727624528406    0.798579145447724    0.384616352185005  0.0000
  O2     O2        0.408662266776159    0.203508736077828    0.364465914175454  0.0000
  O3     O3        0.978326903340500    0.015135368399404    0.483765720970829  0.0000
  O2     O2        0.496215200937676    0.999990177664290    0.507204559365741  0.0000
  O1     O1        0.009025307540818    0.033315267462099    0.224141198150813  0.0000
  O2     O2        0.513970690004216    0.989512901097521    0.260432621922409  0.0000
  O2     O2        0.023655129461481    0.009963083034662    0.721673893530675  0.0000
  O2     O2        0.492392899402883    0.976039519794652    0.754592188273156  0.0000
  O2     O2        0.584281636268888    0.211290870212351    0.106484062584407  0.0000
  O3     O3        0.898678146447925    0.796165463378851    0.121095859175911  0.0000
  O3     O3        0.409551319254762    0.218661877000621    0.871766831487011  0.0000
  O2     O2        0.088099046959451    0.821968256232855    0.909392484598511  0.0000
  O2     O2        0.364190317337929    0.895087219167689    0.886355242398944  0.0000
  O2     O2        0.114051281297097    0.167694924294917    0.890970324861909  0.0000
  O2     O2        0.619393854675817    0.871190607714329    0.107367638388903  0.0000
  O3     O3        0.864645545817398    0.153609722150928    0.129304658082182  0.0000
  O2     O2        0.487827638224128    0.976686597375059    0.008915049429102  0.0000
  O3     O3        0.977113302160956    0.048307853838593    0.958522916287144  0.0000
  O2     O2        0.141523498634381    0.484897268161167    0.311779610893042  0.0000
  O2     O2        0.366471079439508    0.528165107719122    0.303332380413954  0.0000
  O2     O2        0.859787349276669    0.486114060211850    0.705192361114906  0.0000
  O2     O2        0.637425363268690    0.520921030890323    0.687083972342135  0.0000
  O2     O2        0.262297061505628    0.273503019076806    0.315509372981281  0.0000
  O2     O2        0.245802067446769    0.739476646658467    0.326480608360860  0.0000
  O2     O2        0.741630473990114    0.266327217580404    0.684572497743675  0.0000
  O2     O2        0.756084500127553    0.740134128488133    0.682873740288621  0.0000
  O2     O2        0.157139059511516    0.238996818538268    0.132783556807520  0.0000
  O2     O2        0.341175843738070    0.778976233080384    0.129377973970818  0.0000
  O2     O2        0.834373502450232    0.236576692541804    0.884367903869133  0.0000
  O2     O2        0.652926864455710    0.768808523435645    0.868398181759955  0.0000
  O2     O2        0.855996724487015    0.738531040867382    0.880421661252115  0.0000
  O2     O2        0.635655125481732    0.280788934647328    0.872411683547621  0.0000
  O2     O2        0.136886546995047    0.748599763848897    0.143702372781839  0.0000
  O3     O3        0.365690680285149    0.277907439258327    0.127270397174560  0.0000
  O2     O2        0.624529308573703    0.533359161700640    0.049396251357998  0.0000
  O2     O2        0.858481129036466    0.482243362874781    0.057534369725272  0.0000
  O3     O3        0.364598338884638    0.556774880908359    0.939952268169711  0.0000
  O2     O2        0.128177326213576    0.497341864036464    0.966305836568585  0.0000
  O2     O2        0.731594504676321    0.288719053290239    0.071319157402260  0.0000
  O2     O2        0.751511379524508    0.729221235152343    0.064693248524674  0.0000
  O3     O3        0.250437798970379    0.294922501322215    0.932507295035909  0.0000
  O2     O2        0.235392778263394    0.740802095744483    0.946098227569452  0.0000
