data_c00073.vasp
_audit_creation_method             Generated by GULP
_audit_author_name                 Salvador R. G. Balestra
_symmetry_space_group_name_H-M     'P 1             '
_symmetry_Int_Tables_number        1

loop_
_symmetry_equiv_pos_site_id
_symmetry_equiv_pos_as_xyz
_cell_length_a                       17.1902
_cell_length_b                        7.6061
_cell_length_c                       10.3028
_cell_angle_alpha                   88.6015
_cell_angle_beta                    90.5017
_cell_angle_gamma                   89.9405

loop_
_atom_site_label
_atom_site_type_symbol
_atom_site_fract_x
_atom_site_fract_y
_atom_site_fract_z
_atom_site_charge
  Ge     Ge        0.052090000000021    0.000000000000000    0.372269999999958  0.0000
  Ge     Ge        0.355349266193417    0.679836143784352    0.288588079671136  0.0000
  Ge     Ge        0.848436428942588    0.336023622261430    0.719004509330208  0.0000
  Si     Si        0.457925698576462    0.987351475852394    0.370840734531486  0.0000
  Si     Si        0.952814412552868    0.030755046463778    0.632341897378559  0.0000
  Si     Si        0.548929787372360    0.018936747102362    0.634958361149800  0.0000
  Si     Si        0.556846187430007    0.998473469111750    0.115635719775995  0.0000
  Si     Si        0.943697607544011    0.004004846438952    0.114542641180924  0.0000
  Si     Si        0.440122035117902    0.009403528636551    0.878472679821323  0.0000
  Si     Si        0.056712226894017    0.018230957845073    0.880466328248586  0.0000
  Si     Si        0.158503650849970    0.309124948517021    0.287845819604724  0.0000
  Si     Si        0.654991032873805    0.711687180379519    0.726497577367128  0.0000
  Si     Si        0.833129806495773    0.744927477118898    0.730888259481803  0.0000
  Si     Si        0.665976866885732    0.306784004630372    0.718880212826450  0.0000
  Si     Si        0.172170506992422    0.716409578336740    0.293102267388830  0.0000
  Si     Si        0.337774548247249    0.269956441171187    0.280220872495604  0.0000
  Si     Si        0.668540310544888    0.289652607684046    0.023401868825867  0.0000
  Si     Si        0.830878337927373    0.716995962921757    0.036850486016740  0.0000
  Si     Si        0.331579506869082    0.295556197708788    0.975973720399011  0.0000
  Si     Si        0.166736406734539    0.727272241701272    0.991033618534368  0.0000
  Si     Si        0.347421022961202    0.695130058888504    0.979887723156233  0.0000
  Si     Si        0.152026432563392    0.325143608732967    0.986979314243857  0.0000
  Si     Si        0.652788804561230    0.687267841430037    0.029775903914251  0.0000
  Si     Si        0.847964625158929    0.320542525554491    0.030216225937533  0.0000
  O3     O3        0.100307861165419    0.198942240103166    0.376116618938421  0.0000
  O3     O3        0.423812304128268    0.792348101414015    0.376575782337002  0.0000
  O3     O3        0.916875885561566    0.224930819513550    0.632034238281725  0.0000
  O2     O2        0.595323322756018    0.835075301986424    0.646432319420690  0.0000
  O2     O2        0.880809067071354    0.902100674810589    0.664935272174717  0.0000
  O2     O2        0.608391781016944    0.181445745420760    0.641050408123680  0.0000
  O3     O3        0.120825721257312    0.834760218003483    0.383593148602969  0.0000
  O2     O2        0.383516877337581    0.116220303046299    0.356579513295262  0.0000
  O3     O3        0.985740636907108    0.984454434329610    0.494161016164323  0.0000
  O2     O2        0.506379173566588    0.031943571960843    0.497671055588943  0.0000
  O3     O3        0.002012081378916    0.972356075253575    0.230221774970186  0.0000
  O2     O2        0.514580795012471    0.018673361367755    0.250282337379246  0.0000
  O2     O2        0.024211980655219    0.010103219869616    0.734652360004501  0.0000
  O2     O2        0.483344347619475    0.030758961676871    0.743363017526913  0.0000
  O2     O2        0.624682528981790    0.143342394798683    0.108290139817098  0.0000
  O2     O2        0.876764610325744    0.855261900223747    0.122690399625547  0.0000
  O2     O2        0.374712481383286    0.161086034130229    0.883816600664099  0.0000
  O2     O2        0.121577613999595    0.867030589895607    0.899812740645341  0.0000
  O2     O2        0.399684626171945    0.818087980222948    0.886069039308520  0.0000
  O2     O2        0.093756780382668    0.211272382669322    0.900452600224419  0.0000
  O2     O2        0.593303145586612    0.802693020252156    0.111252564820252  0.0000
  O2     O2        0.903600963346892    0.196419865760678    0.119585812665493  0.0000
  O2     O2        0.499134074543396    0.036697552851218    0.996462512890272  0.0000
  O2     O2        0.986991679706290    0.981813393141964    0.978407998344895  0.0000
  O2     O2        0.146425426377799    0.514062149585083    0.312246787550294  0.0000
  O3     O3        0.370571100673001    0.458513312161742    0.316515594664365  0.0000
  O3     O3        0.865244275714422    0.557515049501282    0.690936028946943  0.0000
  O2     O2        0.638723552914209    0.508790332599042    0.695007652551531  0.0000
  O2     O2        0.247458273771785    0.255626334792613    0.320077259933285  0.0000
  O3     O3        0.261979350162404    0.735210625406725    0.330511244149436  0.0000
  O3     O3        0.753974461950476    0.286964861046583    0.673406635815431  0.0000
  O2     O2        0.742799396579216    0.761987229256954    0.686569325899197  0.0000
  O2     O2        0.140157090842019    0.266460854754251    0.137036299752162  0.0000
  O3     O3        0.369313301928905    0.735652784591852    0.126842794635651  0.0000
  O3     O3        0.862876583627487    0.282018732281709    0.880879990594434  0.0000
  O2     O2        0.642917731664143    0.743672886865312    0.878923850847533  0.0000
  O2     O2        0.837907987508934    0.764481402596719    0.885348354264006  0.0000
  O2     O2        0.661429850586615    0.252529057319396    0.870952648272848  0.0000
  O2     O2        0.158791191101194    0.776021742296293    0.141807901610354  0.0000
  O2     O2        0.345538273056174    0.242358319525253    0.126148921709843  0.0000
  O2     O2        0.632683951019813    0.481735879823925    0.052034831822459  0.0000
  O2     O2        0.866734171580403    0.522660949571594    0.063040813641295  0.0000
  O2     O2        0.364601636307508    0.491633820287397    0.949155660534525  0.0000
  O2     O2        0.132680186489614    0.532030938763614    0.966917665525985  0.0000
  O2     O2        0.758471038320707    0.281414782643731    0.064928137847607  0.0000
  O2     O2        0.740709889371959    0.722350905411691    0.077422322060124  0.0000
  O2     O2        0.240025888562725    0.288687589836743    0.943311721074950  0.0000
  O2     O2        0.256768416044793    0.735079345996798    0.952722121723338  0.0000
