data_c00090.vasp
_audit_creation_method             Generated by GULP
_audit_author_name                 Salvador R. G. Balestra
_symmetry_space_group_name_H-M     'P 1             '
_symmetry_Int_Tables_number        1

loop_
_symmetry_equiv_pos_site_id
_symmetry_equiv_pos_as_xyz
_cell_length_a                       17.1646
_cell_length_b                        7.6202
_cell_length_c                       10.2821
_cell_angle_alpha                   89.2595
_cell_angle_beta                    90.6152
_cell_angle_gamma                   90.4809

loop_
_atom_site_label
_atom_site_type_symbol
_atom_site_fract_x
_atom_site_fract_y
_atom_site_fract_z
_atom_site_charge
  Ge     Ge        0.052090000000021    0.000000000000000    0.372269999999958  0.0000
  Ge     Ge        0.841728756868493    0.320982056363766    0.714296732271583  0.0000
  Ge     Ge        0.825530017083702    0.712428586787142    0.036339735679843  0.0000
  Si     Si        0.452444434661109    0.994549989138220    0.360272193749482  0.0000
  Si     Si        0.945953749801031    0.017350396147525    0.626589478480945  0.0000
  Si     Si        0.542725990754053    0.999030899647202    0.629651657941404  0.0000
  Si     Si        0.551547361501615    0.984556191151680    0.106649458857397  0.0000
  Si     Si        0.939362747580720    0.999317295794833    0.118405934059665  0.0000
  Si     Si        0.433190792322938    0.000367081538271    0.871475223259629  0.0000
  Si     Si        0.047058783925520    0.996200968907639    0.880521838166937  0.0000
  Si     Si        0.159019933481052    0.305950230380976    0.292237484164480  0.0000
  Si     Si        0.347170994403147    0.689727309682022    0.272072680795302  0.0000
  Si     Si        0.649490722940690    0.693083588615598    0.722825224637002  0.0000
  Si     Si        0.826848064810131    0.734782066895468    0.728313790792836  0.0000
  Si     Si        0.659720874182000    0.292142485066471    0.710373858453130  0.0000
  Si     Si        0.167230015016924    0.711260886097320    0.285422087993014  0.0000
  Si     Si        0.338363848906476    0.286579447000543    0.275950323918143  0.0000
  Si     Si        0.663756384933750    0.275827083883587    0.015657695465680  0.0000
  Si     Si        0.326628743091119    0.287523725162153    0.972730735881229  0.0000
  Si     Si        0.157104213606804    0.707221321211032    0.984131066497826  0.0000
  Si     Si        0.337596619599026    0.687420365005359    0.969971886044396  0.0000
  Si     Si        0.146801567987002    0.303965074842302    0.990522534478027  0.0000
  Si     Si        0.645209459744110    0.668110944416397    0.028795273258812  0.0000
  Si     Si        0.844163763528369    0.309388757653236    0.021140146428601  0.0000
  O3     O3        0.104596181495706    0.193822023259369    0.385703142810845  0.0000
  O2     O2        0.405845848893936    0.810530886723938    0.353683862862363  0.0000
  O3     O3        0.908896107610259    0.209669550038279    0.624245584735606  0.0000
  O2     O2        0.588614146127061    0.817635615809375    0.649036065794621  0.0000
  O2     O2        0.875595666816221    0.879721539333962    0.648876871488479  0.0000
  O2     O2        0.602376687372608    0.162597857327023    0.633397608652630  0.0000
  O3     O3        0.119030798217090    0.831595496150906    0.378477248116246  0.0000
  O2     O2        0.392104010545388    0.155338327533842    0.358667689404620  0.0000
  O3     O3        0.983796826530811    0.976855409687553    0.489928028882236  0.0000
  O2     O2        0.502210251259507    0.998103270139732    0.490527008389217  0.0000
  O3     O3        0.005021368459206    0.994415008434840    0.225313759403896  0.0000
  O2     O2        0.511452258667127    0.016152902421296    0.242336689230492  0.0000
  O2     O2        0.014722245356050    0.999833059686478    0.734173001207349  0.0000
  O2     O2        0.475671516844218    0.018419193576904    0.735339831389620  0.0000
  O2     O2        0.624021262005139    0.119324767090330    0.096421280761460  0.0000
  O3     O3        0.874977705775710    0.849012943574880    0.140080156804719  0.0000
  O2     O2        0.369659569876093    0.153970576322792    0.879632518912188  0.0000
  O2     O2        0.108776810037120    0.838517205836975    0.892271947557036  0.0000
  O2     O2        0.390310155424638    0.811079924583534    0.878767418876164  0.0000
  O2     O2        0.087379888248124    0.184327166490545    0.909061162625122  0.0000
  O2     O2        0.581661082940675    0.784489467692641    0.101683290573332  0.0000
  O2     O2        0.896928257711975    0.187718291980425    0.115040766070788  0.0000
  O2     O2        0.493842063316895    0.026702694361737    0.988113400943614  0.0000
  O2     O2        0.976844222638032    0.957585338356981    0.978096241287755  0.0000
  O2     O2        0.143288495646965    0.510193197879452    0.314101596707320  0.0000
  O2     O2        0.365332638225857    0.486305476399284    0.302622400021346  0.0000
  O3     O3        0.861267881573795    0.543191113547890    0.705934056700996  0.0000
  O2     O2        0.629341899832576    0.491235786648685    0.690291063891750  0.0000
  O2     O2        0.249362763894862    0.260910578210837    0.320292517606614  0.0000
  O2     O2        0.259330838088753    0.735799237452220    0.311158753252994  0.0000
  O3     O3        0.747439812831698    0.279899385191482    0.660980164555693  0.0000
  O2     O2        0.737072738263705    0.737236301780815    0.676477254068094  0.0000
  O2     O2        0.138169778700700    0.256062692925253    0.142787503810183  0.0000
  O2     O2        0.358896646231128    0.730699079629106    0.119244144303282  0.0000
  O3     O3        0.854340051646253    0.251336082560779    0.873328444704375  0.0000
  O2     O2        0.644657302001439    0.723705279411109    0.876887383436047  0.0000
  O3     O3        0.827567464085263    0.787162244698048    0.877947598140501  0.0000
  O2     O2        0.659448154508489    0.237267253570348    0.862456942515237  0.0000
  O2     O2        0.147818935194108    0.760490299147658    0.134557846786007  0.0000
  O2     O2        0.345081481197447    0.242879919501512    0.123457230401895  0.0000
  O2     O2        0.622639406558757    0.461882866441507    0.045043919668281  0.0000
  O3     O3        0.868738139633776    0.508610082557215    0.042221545383234  0.0000
  O2     O2        0.355548825508015    0.485076695591253    0.939326001413377  0.0000
  O2     O2        0.126336772035774    0.508082133192992    0.964006143408059  0.0000
  O2     O2        0.753444096879913    0.287432482126530    0.060101142114179  0.0000
  O3     O3        0.730237033077441    0.701194062134534    0.087407676553479  0.0000
  O2     O2        0.234595295617082    0.268214863833011    0.945462793640005  0.0000
  O2     O2        0.246846318263098    0.724192534326733    0.943013125374743  0.0000
