data_c00085.vasp
_audit_creation_method             Generated by GULP
_audit_author_name                 Salvador R. G. Balestra
_symmetry_space_group_name_H-M     'P 1             '
_symmetry_Int_Tables_number        1

loop_
_symmetry_equiv_pos_site_id
_symmetry_equiv_pos_as_xyz
_cell_length_a                       17.1816
_cell_length_b                        7.6043
_cell_length_c                       10.2762
_cell_angle_alpha                   89.5550
_cell_angle_beta                    90.8535
_cell_angle_gamma                   89.7931

loop_
_atom_site_label
_atom_site_type_symbol
_atom_site_fract_x
_atom_site_fract_y
_atom_site_fract_z
_atom_site_charge
  Ge     Ge        0.052090000000021    0.000000000000000    0.372269999999958  0.0000
  Ge     Ge        0.354685269664663    0.679161005126162    0.290480169677617  0.0000
  Ge     Ge        0.850146398268899    0.332934481017540    0.040363010394650  0.0000
  Si     Si        0.457093424368377    0.988192021686758    0.372477509151169  0.0000
  Si     Si        0.948935599878108    0.014092117318334    0.631250718130798  0.0000
  Si     Si        0.550389978752057    0.007141386097564    0.635764166002773  0.0000
  Si     Si        0.555737712179878    0.009115500531713    0.116938488707133  0.0000
  Si     Si        0.947336287044697    0.014676283703864    0.115669708055854  0.0000
  Si     Si        0.440015793491027    0.005712565032924    0.877929082731733  0.0000
  Si     Si        0.056709403873694    0.016570553410741    0.876443408307541  0.0000
  Si     Si        0.157609743886992    0.308249900493662    0.282501981706910  0.0000
  Si     Si        0.845289999630137    0.317313469557714    0.729013785297188  0.0000
  Si     Si        0.655760247092906    0.700725926391825    0.721056757477727  0.0000
  Si     Si        0.834023093829871    0.722709810388488    0.724671542340686  0.0000
  Si     Si        0.667068379492116    0.296125150983830    0.729018664015822  0.0000
  Si     Si        0.171500727471164    0.715437804013852    0.293509140559040  0.0000
  Si     Si        0.337560531726437    0.269067396070391    0.278295979588342  0.0000
  Si     Si        0.667854062173054    0.300914637545528    0.034354852618094  0.0000
  Si     Si        0.832098951615982    0.735048131975190    0.030125934430047  0.0000
  Si     Si        0.332204771532046    0.293627931391633    0.973948442228468  0.0000
  Si     Si        0.166579027055208    0.726678372870724    0.990461869581521  0.0000
  Si     Si        0.347273848095408    0.693662456551710    0.981239400572521  0.0000
  Si     Si        0.152126089150693    0.324514350506856    0.981658169759937  0.0000
  Si     Si        0.653152553075288    0.697994066246830    0.024350619356604  0.0000
  O3     O3        0.099936154155755    0.199124156457162    0.370284621119620  0.0000
  O3     O3        0.422927045453078    0.793556364221138    0.379748294131354  0.0000
  O2     O2        0.903902062497777    0.198969188452530    0.646166455441874  0.0000
  O2     O2        0.595647582061114    0.820333560417972    0.638013711183848  0.0000
  O2     O2        0.888643796319599    0.853616165464300    0.645847003021669  0.0000
  O2     O2        0.612411378557181    0.163339152115991    0.650971039085561  0.0000
  O3     O3        0.120745530376797    0.834446282748082    0.386519802237105  0.0000
  O2     O2        0.382560562230609    0.117466544913747    0.357757003432655  0.0000
  O3     O3        0.983028795707990    0.002435221612673    0.489352036980932  0.0000
  O2     O2        0.507206957698473    0.033762268394578    0.499135717073758  0.0000
  O3     O3        0.003354911256040    0.954385480355208    0.229295565419888  0.0000
  O2     O2        0.512544431627608    0.017311496134784    0.251364356205716  0.0000
  O2     O2        0.022057281466939    0.998932656624758    0.731492663719638  0.0000
  O2     O2        0.484695918254227    0.015517469697361    0.743927012543124  0.0000
  O2     O2        0.619416535062869    0.162725006468361    0.117717732847982  0.0000
  O2     O2        0.870285391450283    0.892824331652121    0.109876684019284  0.0000
  O2     O2        0.374493822604837    0.158595296745659    0.878927601381641  0.0000
  O2     O2        0.121298244773856    0.865228950149198    0.899172281050242  0.0000
  O2     O2        0.399851797353678    0.814937846156356    0.888866787303407  0.0000
  O2     O2        0.095132786208863    0.209874282824862    0.891011677104806  0.0000
  O2     O2        0.596125467153975    0.818467654454937    0.106732080300990  0.0000
  O3     O3        0.916301535685953    0.212404691652741    0.131737236996027  0.0000
  O2     O2        0.497896844064272    0.043656404618753    0.996898093528888  0.0000
  O2     O2        0.988216079701318    0.990981227355029    0.977189916494010  0.0000
  O2     O2        0.145062000290123    0.513532038505629    0.308307566190183  0.0000
  O3     O3        0.370388783191836    0.457979459851193    0.315872773627517  0.0000
  O2     O2        0.862312868853426    0.523045446101222    0.700825999665491  0.0000
  O2     O2        0.638278418500121    0.495021647090819    0.698235094156660  0.0000
  O2     O2        0.246808677349732    0.255789944487214    0.314643402597485  0.0000
  O3     O3        0.261210045398012    0.732602290917487    0.333350358645934  0.0000
  O2     O2        0.756397912957110    0.273770355917718    0.685738862229389  0.0000
  O2     O2        0.743947988152848    0.744175128321932    0.678702854201688  0.0000
  O2     O2        0.138596657367511    0.264675606016202    0.130852273996702  0.0000
  O3     O3        0.368204831636208    0.735821362037463    0.129226364290143  0.0000
  O3     O3        0.859262655055139    0.274316033939373    0.879469177656319  0.0000
  O2     O2        0.643533549160504    0.747201325186126    0.872160063032398  0.0000
  O2     O2        0.839630137531466    0.768409453543963    0.876148902158916  0.0000
  O2     O2        0.663974446631645    0.251826601932606    0.881966412001043  0.0000
  O2     O2        0.159255210979110    0.776374255069570    0.142241309019037  0.0000
  O2     O2        0.346600784490117    0.238612056089390    0.123862770783445  0.0000
  O2     O2        0.631025973927049    0.495711992178030    0.051455484507559  0.0000
  O3     O3        0.872260923890072    0.550821806354814    0.065386656529546  0.0000
  O2     O2        0.365152668139650    0.489600867792757    0.950201622708901  0.0000
  O2     O2        0.132331958398802    0.531356422284138    0.964601310627747  0.0000
  O3     O3        0.755465600899950    0.296639883469648    0.085844178628737  0.0000
  O2     O2        0.741858580099402    0.729131782867432    0.069146762477996  0.0000
  O2     O2        0.240563444813009    0.288684161847901    0.940888851969435  0.0000
  O2     O2        0.256580543306361    0.733216460602528    0.952111149331665  0.0000
