data_c00107.vasp
_audit_creation_method             Generated by GULP
_audit_author_name                 Salvador R. G. Balestra
_symmetry_space_group_name_H-M     'P 1             '
_symmetry_Int_Tables_number        1

loop_
_symmetry_equiv_pos_site_id
_symmetry_equiv_pos_as_xyz
_cell_length_a                       17.1696
_cell_length_b                        7.5930
_cell_length_c                       10.2378
_cell_angle_alpha                   90.2334
_cell_angle_beta                    90.0784
_cell_angle_gamma                   90.0319

loop_
_atom_site_label
_atom_site_type_symbol
_atom_site_fract_x
_atom_site_fract_y
_atom_site_fract_z
_atom_site_charge
  Ge     Ge        0.052090000000021    0.000000000000000    0.372269999999958  0.0000
  Ge     Ge        0.650382796639101    0.340946042868462    0.041189495317765  0.0000
  Ge     Ge        0.349887392064615    0.336158139410465    0.971184865080891  0.0000
  Si     Si        0.452328584746907    0.009603372398349    0.376634123216761  0.0000
  Si     Si        0.949739567259751    0.998169990382343    0.633251802930598  0.0000
  Si     Si        0.552150016721500    0.005074528142904    0.636535048562520  0.0000
  Si     Si        0.554206239286769    0.025170866196937    0.127078801541904  0.0000
  Si     Si        0.945032550196051    0.017504506782200    0.113263691996868  0.0000
  Si     Si        0.444807922880972    0.020082294101071    0.881815550740181  0.0000
  Si     Si        0.056161638298336    0.008422848937078    0.876753945978762  0.0000
  Si     Si        0.172194199013389    0.284971142566229    0.285138098416679  0.0000
  Si     Si        0.336918560422712    0.723347649042910    0.289262595490724  0.0000
  Si     Si        0.833473793952952    0.290106284204970    0.736513287057548  0.0000
  Si     Si        0.667267618008926    0.719607337793454    0.721565659942988  0.0000
  Si     Si        0.846309536453722    0.693811373570241    0.725387089466722  0.0000
  Si     Si        0.655691328997065    0.312405921964320    0.730453718617524  0.0000
  Si     Si        0.157561483717080    0.690891397099754    0.295516868635979  0.0000
  Si     Si        0.352107731009754    0.317728061640263    0.280750098677934  0.0000
  Si     Si        0.846979390423269    0.703915357551677    0.029629509083780  0.0000
  Si     Si        0.152071747884228    0.700764798574379    0.993191630047408  0.0000
  Si     Si        0.332280745028926    0.741148433073380    0.984182101388543  0.0000
  Si     Si        0.166263728287987    0.298668793417698    0.980979630628632  0.0000
  Si     Si        0.666956310413656    0.744835626244404    0.025926501533464  0.0000
  Si     Si        0.831790818138189    0.308476229725477    0.044001709752002  0.0000
  O3     O3        0.124633089479800    0.158226155866662    0.377585652307077  0.0000
  O2     O2        0.387595415457794    0.855328837570407    0.377665883233101  0.0000
  O2     O2        0.888509552701744    0.152828985991965    0.663606941203165  0.0000
  O2     O2        0.615274653071449    0.847235467234803    0.632300893399685  0.0000
  O2     O2        0.905938397089511    0.809786187839880    0.641208743511561  0.0000
  O2     O2        0.596434222760231    0.191881715362803    0.647382283844814  0.0000
  O3     O3        0.098584675307106    0.798555157731312    0.384609271883311  0.0000
  O2     O2        0.410524721908454    0.199330170133804    0.366513214860891  0.0000
  O3     O3        0.982042029644808    0.023298150626413    0.489402163684296  0.0000
  O2     O2        0.501812077626016    0.003169968084941    0.506970578328969  0.0000
  O3     O3        0.007069629685131    0.031023550627094    0.224898014741861  0.0000
  O2     O2        0.512107123400567    0.973905814175746    0.259761929999214  0.0000
  O2     O2        0.024296602710676    0.004684772426512    0.729336796129736  0.0000
  O2     O2        0.492174838901692    0.970962319597401    0.753429186013592  0.0000
  O3     O3        0.582866767639803    0.225317891437787    0.130374292736607  0.0000
  O2     O2        0.901598148972942    0.828501639682123    0.116879695427949  0.0000
  O3     O3        0.413803086947057    0.218292707429816    0.875493120003911  0.0000
  O2     O2        0.095417258687138    0.820155303718549    0.906829260225069  0.0000
  O2     O2        0.368972920457064    0.895201554456727    0.897316323916110  0.0000
  O2     O2        0.118010145074533    0.166500027755380    0.889329326742955  0.0000
  O2     O2        0.630847835200149    0.904233128451916    0.108300675766712  0.0000
  O2     O2        0.881406514363904    0.172216515692422    0.128760915282034  0.0000
  O2     O2        0.497816605211377    0.984315816474750    0.006939912258354  0.0000
  O2     O2        0.984969422698293    0.045200203900453    0.973018027972663  0.0000
  O2     O2        0.142833075254914    0.483751554897861    0.310869425810645  0.0000
  O2     O2        0.367899836468900    0.524410622475706    0.308232919860218  0.0000
  O2     O2        0.863708314326371    0.486953941274763    0.703825753900653  0.0000
  O2     O2        0.638600414924343    0.518580166571320    0.703659501758038  0.0000
  O2     O2        0.263590894086415    0.270624308302755    0.318769753324652  0.0000
  O2     O2        0.246915643427971    0.736545098735744    0.332712094116938  0.0000
  O2     O2        0.744405356968329    0.267854263342060    0.687808954241679  0.0000
  O2     O2        0.757869335155751    0.735581980824985    0.681181731092743  0.0000
  O2     O2        0.161348017916691    0.236394760051333    0.131776884288113  0.0000
  O2     O2        0.344082827710391    0.779203569033270    0.138230197764350  0.0000
  O2     O2        0.832755980264393    0.256325053419621    0.891092703918205  0.0000
  O2     O2        0.658553887809796    0.780803361866093    0.871370041610863  0.0000
  O2     O2        0.859118108154666    0.745219919111932    0.876713444745256  0.0000
  O3     O3        0.641719571291209    0.270970298834440    0.881219659404623  0.0000
  O2     O2        0.140996802461721    0.749898517037735    0.145549766806093  0.0000
  O3     O3        0.367502213579210    0.273753356942091    0.130450987129384  0.0000
  O3     O3        0.626711454774080    0.560419622941596    0.057873492117719  0.0000
  O2     O2        0.869246589593380    0.502885504417956    0.061692639715307  0.0000
  O3     O3        0.370633770299865    0.555662928908152    0.948826597453580  0.0000
  O2     O2        0.131388421234554    0.496163782004677    0.968093352757894  0.0000
  O3     O3        0.744209568798648    0.307230858876177    0.094671563305160  0.0000
  O2     O2        0.757288236155369    0.735097985391822    0.066234999784720  0.0000
  O3     O3        0.254195953652440    0.296323557744512    0.932168739089791  0.0000
  O2     O2        0.240774378648052    0.734986908629579    0.950891878796682  0.0000
