data_c00101.vasp
_audit_creation_method             Generated by GULP
_audit_author_name                 Salvador R. G. Balestra
_symmetry_space_group_name_H-M     'P 1             '
_symmetry_Int_Tables_number        1

loop_
_symmetry_equiv_pos_site_id
_symmetry_equiv_pos_as_xyz
_cell_length_a                       17.1814
_cell_length_b                        7.6271
_cell_length_c                       10.2915
_cell_angle_alpha                   90.9171
_cell_angle_beta                    90.2518
_cell_angle_gamma                   90.1254

loop_
_atom_site_label
_atom_site_type_symbol
_atom_site_fract_x
_atom_site_fract_y
_atom_site_fract_z
_atom_site_charge
  Ge     Ge        0.052090000000021    0.000000000000000    0.372269999999958  0.0000
  Ge     Ge        0.652489531887043    0.668825300912476    0.708001596938797  0.0000
  Ge     Ge        0.168508629717840    0.701100472707108    0.968966735212611  0.0000
  Si     Si        0.453827014426561    0.990842257124387    0.363180269990955  0.0000
  Si     Si        0.949652924058833    0.989977150355940    0.634240870974973  0.0000
  Si     Si        0.547241909149464    0.973331722936323    0.625930876835132  0.0000
  Si     Si        0.562058154581246    0.990614519382806    0.118535089809370  0.0000
  Si     Si        0.944955112856251    0.995825208553535    0.119848044220033  0.0000
  Si     Si        0.446729661486195    0.981173208841242    0.881753682291250  0.0000
  Si     Si        0.056220691417873    0.987466660209804    0.883828986585716  0.0000
  Si     Si        0.160357788561811    0.301239426487621    0.275024598363218  0.0000
  Si     Si        0.349072352693803    0.681717617057173    0.273529858407510  0.0000
  Si     Si        0.844446024649801    0.294107383628712    0.710536336911324  0.0000
  Si     Si        0.835593314378975    0.696036518877373    0.705888970613631  0.0000
  Si     Si        0.664696961983718    0.259681517889026    0.716870370251107  0.0000
  Si     Si        0.171311957261182    0.711529734785828    0.274686446827301  0.0000
  Si     Si        0.339413663023996    0.279726285986147    0.274772306097201  0.0000
  Si     Si        0.670198417492652    0.277467234432429    0.020311690619562  0.0000
  Si     Si        0.835355787104810    0.703463491305951    0.011521325605468  0.0000
  Si     Si        0.336666470733689    0.272230572122351    0.971523871955967  0.0000
  Si     Si        0.350336128711315    0.667578055091373    0.967249844407509  0.0000
  Si     Si        0.155728440200593    0.295029826806885    0.976061442387543  0.0000
  Si     Si        0.655546799702780    0.677529891968352    0.016851259381501  0.0000
  Si     Si        0.849711126042081    0.306039438222219    0.013906152246361  0.0000
  O3     O3        0.101639159289597    0.196956295966396    0.363536752257166  0.0000
  O2     O2        0.409899211676534    0.804330522973538    0.350799516929148  0.0000
  O2     O2        0.899349990300413    0.168692856767303    0.624549259318146  0.0000
  O3     O3        0.585832643222814    0.783586990055722    0.618442547995205  0.0000
  O2     O2        0.891122747169059    0.823654599533023    0.625255003429207  0.0000
  O2     O2        0.618338745334501    0.111679698810709    0.636576817523644  0.0000
  O3     O3        0.117379383865424    0.829236598606233    0.364394760492055  0.0000
  O2     O2        0.391776133262998    0.147984018413544    0.356374573109482  0.0000
  O3     O3        0.013012221391255    0.983598680178462    0.524623005017289  0.0000
  O2     O2        0.495502251127577    0.008119673343436    0.500735582258984  0.0000
  O3     O3        0.975269911807481    0.986666278153678    0.265152956855625  0.0000
  O2     O2        0.519694843730006    0.007575631545147    0.255049355690492  0.0000
  O2     O2        0.992615086004979    0.987003474408867    0.772492118438659  0.0000
  O2     O2        0.491400040161326    0.997680897599522    0.748506118498466  0.0000
  O2     O2        0.627033534139244    0.143028759066963    0.113564977998649  0.0000
  O2     O2        0.880007615091827    0.846242381640312    0.098277580594229  0.0000
  O2     O2        0.377883363752518    0.124627868600116    0.883990704843109  0.0000
  O3     O3        0.116904386265029    0.831301554777053    0.865521115049348  0.0000
  O2     O2        0.411741464273452    0.785395512931228    0.890322852134881  0.0000
  O2     O2        0.102871317974426    0.171210373422975    0.884690603507002  0.0000
  O2     O2        0.601396637465783    0.798928060656581    0.108097256689434  0.0000
  O2     O2        0.908396731546532    0.188089715637467    0.096079732994416  0.0000
  O2     O2        0.502348758535435    0.023903706384063    0.002494560450974  0.0000
  O2     O2        0.016097634323938    0.957288859799794    0.023217688714475  0.0000
  O2     O2        0.145281062120259    0.508686982328227    0.284311558551260  0.0000
  O2     O2        0.367744339570942    0.478893879329370    0.303164676021657  0.0000
  O2     O2        0.863156707981089    0.495886654185869    0.679116457973409  0.0000
  O3     O3        0.632163510066143    0.449558270115036    0.685498088449986  0.0000
  O2     O2        0.249433302954911    0.259097725521368    0.315841884338143  0.0000
  O2     O2        0.261724171265734    0.728391415711525    0.318538139836805  0.0000
  O2     O2        0.755055903889700    0.251436565309492    0.675364203987706  0.0000
  O3     O3        0.746842078688216    0.715175218883369    0.662382930640189  0.0000
  O2     O2        0.145719533637502    0.237233402905866    0.125961881994826  0.0000
  O2     O2        0.355823138239616    0.715923415317558    0.120237694836130  0.0000
  O2     O2        0.859698753916587    0.257794610362514    0.862311703305393  0.0000
  O3     O3        0.639407730148417    0.727301851922764    0.869218683324366  0.0000
  O2     O2        0.842328733721489    0.743853470289031    0.859127577271897  0.0000
  O2     O2        0.658014557165404    0.221142250770307    0.870275880339887  0.0000
  O3     O3        0.162754633894465    0.775231617001105    0.127609014520310  0.0000
  O2     O2        0.348086383447902    0.229944799347339    0.123052051229970  0.0000
  O2     O2        0.636234132883604    0.473294247667009    0.041917100190856  0.0000
  O2     O2        0.870332764029552    0.510581140170758    0.039762058376164  0.0000
  O2     O2        0.372533071456186    0.463664775099100    0.942262908685129  0.0000
  O3     O3        0.130203954327458    0.492336739513868    0.956726621859514  0.0000
  O2     O2        0.761210187028400    0.271058416970238    0.056941369184613  0.0000
  O2     O2        0.745573945097100    0.711962114732681    0.052379533896009  0.0000
  O2     O2        0.245765191385918    0.272569161551409    0.935383089013794  0.0000
  O3     O3        0.263960509064796    0.702825622710623    0.918367295161146  0.0000
