data_c00146.vasp
_audit_creation_method             Generated by GULP
_audit_author_name                 Salvador R. G. Balestra
_symmetry_space_group_name_H-M     'P 1             '
_symmetry_Int_Tables_number        1

loop_
_symmetry_equiv_pos_site_id
_symmetry_equiv_pos_as_xyz
_cell_length_a                       17.0874
_cell_length_b                        7.6227
_cell_length_c                       10.2618
_cell_angle_alpha                   90.7303
_cell_angle_beta                    90.8806
_cell_angle_gamma                   89.8899

loop_
_atom_site_label
_atom_site_type_symbol
_atom_site_fract_x
_atom_site_fract_y
_atom_site_fract_z
_atom_site_charge
  Ge     Ge        0.556730000000016    0.000000000000000    0.122129999999970  0.0000
  Ge     Ge        0.164893988670278    0.278205949895186    0.281018358106565  0.0000
  Ge     Ge        0.331414293345030    0.704419554172336    0.962395783208617  0.0000
  Si     Si        0.047759161946034    0.992277634069064    0.361564380040581  0.0000
  Si     Si        0.451874282548264    0.004875143588398    0.374105176887895  0.0000
  Si     Si        0.948645901746741    0.980190384132740    0.617560947385238  0.0000
  Si     Si        0.551015813187595    0.000346909963693    0.632343818159665  0.0000
  Si     Si        0.945127368635732    0.994397624635089    0.103844671355161  0.0000
  Si     Si        0.443162348877168    0.987747386871941    0.878454491840358  0.0000
  Si     Si        0.055686787716305    0.981955503359813    0.866680797930190  0.0000
  Si     Si        0.335180887052903    0.716858814393480    0.272243219154634  0.0000
  Si     Si        0.835092408620108    0.275484568459448    0.711712549541281  0.0000
  Si     Si        0.665533121943933    0.709742395797766    0.712051459369417  0.0000
  Si     Si        0.846546830207346    0.677344024604412    0.711326145259761  0.0000
  Si     Si        0.655538250578100    0.305843467525139    0.709705768440597  0.0000
  Si     Si        0.155208304093485    0.688126690706678    0.273875210594987  0.0000
  Si     Si        0.348600384296574    0.309675749964581    0.278133742642527  0.0000
  Si     Si        0.652524041178807    0.315652064430518    0.013450727315729  0.0000
  Si     Si        0.851921140764654    0.675522537339276    0.014420174564172  0.0000
  Si     Si        0.347341969274444    0.302416460295419    0.974281318560524  0.0000
  Si     Si        0.149055235323627    0.667056696068671    0.967745526235739  0.0000
  Si     Si        0.165327036289428    0.267887202235853    0.972019909108969  0.0000
  Si     Si        0.670814335204924    0.714750051002119    0.014622325530498  0.0000
  Si     Si        0.832748925510258    0.279834578789826    0.017052966550088  0.0000
  O3     O3        0.108635455074336    0.149852021437948    0.378406893526633  0.0000
  O2     O2        0.387690937684129    0.851405102491796    0.356847131198398  0.0000
  O2     O2        0.887538633374465    0.140353905125437    0.630605981557276  0.0000
  O2     O2        0.613260500993651    0.840054441139417    0.624660101703391  0.0000
  O2     O2        0.902926808961270    0.796335974004587    0.626500920652334  0.0000
  O2     O2        0.597303901620021    0.184490424204929    0.623667816657713  0.0000
  O2     O2        0.097589637651920    0.813247872903007    0.353962159848873  0.0000
  O2     O2        0.411715727555658    0.196192495688553    0.358822425580845  0.0000
  O2     O2        0.987162489575663    0.986052751797086    0.477575517524604  0.0000
  O2     O2        0.487195875631596    0.987786218550566    0.518523973736240  0.0000
  O2     O2        0.998596517641284    0.022708074478246    0.229641012647726  0.0000
  O3     O3        0.523244335203364    0.984767510315380    0.277404260523874  0.0000
  O2     O2        0.017712025767795    0.995046887913863    0.724317913887581  0.0000
  O2     O2        0.506096316967836    0.989787458943347    0.766976831343903  0.0000
  O3     O3        0.591278848230986    0.209243548982628    0.095007711984445  0.0000
  O2     O2        0.909577173283556    0.797770902469119    0.101018527367155  0.0000
  O2     O2        0.402068429746069    0.177904712553616    0.888496959472609  0.0000
  O2     O2        0.087139045301904    0.784231142667923    0.887496829012729  0.0000
  O3     O3        0.377210314418259    0.841701997304812    0.856803573083154  0.0000
  O2     O2        0.125385850692246    0.124438462548692    0.876272499458123  0.0000
  O3     O3        0.633130103255338    0.853431318874056    0.109373653491063  0.0000
  O2     O2        0.875878611261606    0.138007629820623    0.106538526068261  0.0000
  O3     O3        0.484523555007217    0.937516629477512    0.014288078434554  0.0000
  O2     O2        0.993451529715227    0.033228708278827    0.975253937071552  0.0000
  O3     O3        0.133407775457498    0.490742430548544    0.302991473026624  0.0000
  O2     O2        0.365685476264196    0.517804204715194    0.293605375186175  0.0000
  O2     O2        0.863027173222322    0.472802712078442    0.680831216979012  0.0000
  O2     O2        0.637796367100315    0.510249724819707    0.683282133183342  0.0000
  O3     O3        0.262551594008861    0.266805595954575    0.325936775373770  0.0000
  O2     O2        0.244957988859766    0.729302986403573    0.317121733154912  0.0000
  O2     O2        0.744103404830459    0.257387449844934    0.669963563941088  0.0000
  O2     O2        0.756782548897806    0.726427916117138    0.676751069717527  0.0000
  O3     O3        0.156322889328875    0.210590739751165    0.120276457106109  0.0000
  O3     O3        0.339887187450761    0.771712722112155    0.123032605595845  0.0000
  O2     O2        0.843186520857415    0.234067689719156    0.864616333639100  0.0000
  O2     O2        0.655038122314996    0.763435674607924    0.863335721499221  0.0000
  O2     O2        0.865854508951487    0.717200854155438    0.862924299780694  0.0000
  O2     O2        0.642005112708761    0.264015684345976    0.861066277073364  0.0000
  O2     O2        0.146653093367325    0.724090607023327    0.119510579939351  0.0000
  O2     O2        0.358046329483430    0.254503177726768    0.126566747032397  0.0000
  O2     O2        0.635710522680417    0.521307943561225    0.037094334032107  0.0000
  O2     O2        0.869568129472426    0.472363362537617    0.045847536456308  0.0000
  O3     O3        0.372527024732534    0.498514942776948    0.948279446300549  0.0000
  O2     O2        0.127004382404831    0.460992141887318    0.952354379839635  0.0000
  O2     O2        0.742010999744944    0.273682336328697    0.055317040423992  0.0000
  O2     O2        0.762823076972165    0.717273963353063    0.047609220297718  0.0000
  O2     O2        0.256404035740678    0.276616718399262    0.935099809872177  0.0000
  O3     O3        0.234614058307094    0.699319911779144    0.914404229522954  0.0000
