data_c00137.vasp
_audit_creation_method             Generated by GULP
_audit_author_name                 Salvador R. G. Balestra
_symmetry_space_group_name_H-M     'P 1             '
_symmetry_Int_Tables_number        1

loop_
_symmetry_equiv_pos_site_id
_symmetry_equiv_pos_as_xyz
_cell_length_a                       17.1558
_cell_length_b                        7.6273
_cell_length_c                       10.2335
_cell_angle_alpha                   90.9984
_cell_angle_beta                    90.3921
_cell_angle_gamma                   89.7645

loop_
_atom_site_label
_atom_site_type_symbol
_atom_site_fract_x
_atom_site_fract_y
_atom_site_fract_z
_atom_site_charge
  Ge     Ge        0.556730000000016    0.000000000000000    0.122129999999970  0.0000
  Ge     Ge        0.158577923908481    0.279312316115643    0.266834820689260  0.0000
  Ge     Ge        0.660312446720770    0.701645924645615    0.701253445168594  0.0000
  Si     Si        0.043100212077494    0.991686511944516    0.349039883052528  0.0000
  Si     Si        0.445794122433280    0.003329013911455    0.365980955208441  0.0000
  Si     Si        0.945203193989053    0.966998354077774    0.605821351067469  0.0000
  Si     Si        0.541653690567437    0.987563053622401    0.623453001535123  0.0000
  Si     Si        0.942850681116863    0.985682064011258    0.089385578334092  0.0000
  Si     Si        0.440705877232141    0.982247866800388    0.879121970440276  0.0000
  Si     Si        0.054616779843005    0.981962511702275    0.850063294221939  0.0000
  Si     Si        0.332045422922482    0.709654029019958    0.261037155449920  0.0000
  Si     Si        0.829979436317076    0.260841082041938    0.701943932293835  0.0000
  Si     Si        0.843396216643655    0.662830142255244    0.696482918036109  0.0000
  Si     Si        0.650082789979865    0.287902701273711    0.705744504799050  0.0000
  Si     Si        0.151910195607149    0.691542757389641    0.261666493877186  0.0000
  Si     Si        0.341688673745766    0.305774692457577    0.267043339131927  0.0000
  Si     Si        0.651388426067018    0.310419575733474    0.008420699884878  0.0000
  Si     Si        0.847994354000453    0.667639879657490    0.003406581256065  0.0000
  Si     Si        0.341800248500989    0.298553720426662    0.959976812416802  0.0000
  Si     Si        0.150259870627853    0.673231043832209    0.956818122895088  0.0000
  Si     Si        0.330115565589086    0.695128653812568    0.955191679142822  0.0000
  Si     Si        0.161593541633558    0.270994486133784    0.956211242984255  0.0000
  Si     Si        0.668558523962194    0.713371905544660    0.008680603347985  0.0000
  Si     Si        0.830664770484192    0.273336607091114    0.008187541020316  0.0000
  O3     O3        0.100075163791287    0.156005292830019    0.364170567919445  0.0000
  O2     O2        0.384613127332728    0.846362393112532    0.341366875861560  0.0000
  O2     O2        0.880720204889420    0.119652443665454    0.622267049300222  0.0000
  O3     O3        0.600943685818768    0.826989570853268    0.604196232537710  0.0000
  O2     O2        0.904887506507559    0.777586196349040    0.617181052472301  0.0000
  O2     O2        0.592317853650630    0.165354804597348    0.621583961670479  0.0000
  O2     O2        0.096807567261870    0.818133665532037    0.346326944924320  0.0000
  O2     O2        0.404473071276829    0.191009117753052    0.344821855109713  0.0000
  O2     O2        0.980817886405060    0.980944513694514    0.463051075942797  0.0000
  O2     O2        0.474551055578891    0.994015930510873    0.514954473680019  0.0000
  O2     O2        0.996300857651675    0.012066868849393    0.214468978334634  0.0000
  O3     O3        0.521393804398285    0.985896374128495    0.277605880739630  0.0000
  O2     O2        0.015697585869775    0.988384900833514    0.708325245535518  0.0000
  O2     O2        0.500185906107049    0.964253714220789    0.761899149828861  0.0000
  O3     O3        0.593362900493220    0.207851601087726    0.098928898611354  0.0000
  O2     O2        0.906838831209736    0.790363293831257    0.085900363015329  0.0000
  O2     O2        0.399550776605535    0.173552645763720    0.878110587624917  0.0000
  O2     O2        0.094254863872281    0.791421034606954    0.868277370250623  0.0000
  O2     O2        0.375510660798239    0.829985931838934    0.865487500525968  0.0000
  O2     O2        0.118210537248134    0.136507260708003    0.858322857411907  0.0000
  O3     O3        0.629365551417745    0.844262004487352    0.110060708527530  0.0000
  O2     O2        0.874510651403876    0.131223978387109    0.095449481380978  0.0000
  O3     O3        0.483651756482641    0.948837384368678    0.014355492997799  0.0000
  O2     O2        0.990680978981154    0.020646124897619    0.959267615859751  0.0000
  O3     O3        0.131608976950760    0.494408072138560    0.292234794083764  0.0000
  O2     O2        0.358275707399206    0.511833062005593    0.294474181487166  0.0000
  O2     O2        0.858678223131637    0.456190460646750    0.668044277022137  0.0000
  O3     O3        0.630375767887900    0.487668114499724    0.680832668909146  0.0000
  O3     O3        0.255558507133384    0.257256701677000    0.310088635784003  0.0000
  O2     O2        0.241680862741382    0.735190823086686    0.299042965273000  0.0000
  O2     O2        0.739001212633320    0.242768747931547    0.663315405751353  0.0000
  O3     O3        0.756679176916891    0.713538631625595    0.654563539039850  0.0000
  O3     O3        0.148652558695341    0.216923302762230    0.104624097602680  0.0000
  O2     O2        0.341680856633465    0.745012249174493    0.107620306810649  0.0000
  O2     O2        0.839105172291194    0.224338456833453    0.855466615924861  0.0000
  O3     O3        0.654255561644653    0.775437770347669    0.861400183930532  0.0000
  O2     O2        0.856815624693853    0.704473038868120    0.850033222795325  0.0000
  O2     O2        0.639015116515599    0.244477368899014    0.858821365298237  0.0000
  O2     O2        0.138092424904604    0.727893998771050    0.107905130175010  0.0000
  O2     O2        0.352935044406596    0.262293973364516    0.113365215659532  0.0000
  O2     O2        0.633696612670012    0.517294433247667    0.019316993050486  0.0000
  O2     O2        0.867729685677586    0.465632784452059    0.035117295509195  0.0000
  O2     O2        0.362909324006682    0.498998824418387    0.928078264319168  0.0000
  O2     O2        0.129314373288059    0.468697070401911    0.935358735764128  0.0000
  O2     O2        0.740678129203193    0.272044405366473    0.050204615670683  0.0000
  O2     O2        0.760028055481287    0.710297946583994    0.043886943216418  0.0000
  O2     O2        0.252714460535539    0.261044509031524    0.920697135024124  0.0000
  O2     O2        0.239354912120966    0.705558378523096    0.916722515153023  0.0000
