data_c00157.vasp
_audit_creation_method             Generated by GULP
_audit_author_name                 Salvador R. G. Balestra
_symmetry_space_group_name_H-M     'P 1             '
_symmetry_Int_Tables_number        1

loop_
_symmetry_equiv_pos_site_id
_symmetry_equiv_pos_as_xyz
_cell_length_a                       17.0595
_cell_length_b                        7.5931
_cell_length_c                       10.2660
_cell_angle_alpha                   89.1347
_cell_angle_beta                    89.4376
_cell_angle_gamma                   90.1909

loop_
_atom_site_label
_atom_site_type_symbol
_atom_site_fract_x
_atom_site_fract_y
_atom_site_fract_z
_atom_site_charge
  Ge     Ge        0.556730000000016    0.000000000000000    0.122129999999970  0.0000
  Ge     Ge        0.334597155822022    0.722818136843035    0.299995279333934  0.0000
  Ge     Ge        0.355938077521797    0.333520396967741    0.981459052377489  0.0000
  Si     Si        0.050066857696652    0.985964094863754    0.378044245934721  0.0000
  Si     Si        0.452248735001028    0.002896172315107    0.383084677142921  0.0000
  Si     Si        0.955021917672029    0.998270453835227    0.641860578128543  0.0000
  Si     Si        0.555950750561945    0.010890162718704    0.631959340342591  0.0000
  Si     Si        0.945841203189007    0.993916222154000    0.130497222426186  0.0000
  Si     Si        0.448612706411286    0.016521665380423    0.875238635816679  0.0000
  Si     Si        0.060539156776342    0.006084462509581    0.893475786615982  0.0000
  Si     Si        0.169586261629876    0.275665710806545    0.281928339003577  0.0000
  Si     Si        0.838443198358211    0.284769753100675    0.728187501051145  0.0000
  Si     Si        0.670925197006226    0.721612535394953    0.731065648338940  0.0000
  Si     Si        0.851180480214944    0.688587972961798    0.725184163298360  0.0000
  Si     Si        0.657811463919366    0.314460303810385    0.733415274551615  0.0000
  Si     Si        0.151298566619952    0.677967822119388    0.294126414696924  0.0000
  Si     Si        0.350469347686621    0.308747474158027    0.289163738775237  0.0000
  Si     Si        0.654521738916721    0.320967756169585    0.035411279693485  0.0000
  Si     Si        0.854918288300375    0.677995621388184    0.029072933116977  0.0000
  Si     Si        0.155435306473037    0.689723767605786    0.989710612626017  0.0000
  Si     Si        0.336292377861600    0.741820362405952    0.991911805395605  0.0000
  Si     Si        0.172820475885524    0.294835514298416    0.976025947278322  0.0000
  Si     Si        0.674605492652161    0.720555444610089    0.033630121222569  0.0000
  Si     Si        0.835653330769943    0.280956834016570    0.032382184784528  0.0000
  O2     O2        0.119023784090404    0.129527263950007    0.358640059346936  0.0000
  O3     O3        0.387576781413051    0.851387279358173    0.404327032069873  0.0000
  O2     O2        0.889978720145035    0.152345075988579    0.643134918449824  0.0000
  O2     O2        0.618306252842943    0.852715441393562    0.645286468990213  0.0000
  O2     O2        0.910491262380663    0.810225102797490    0.641173073899661  0.0000
  O2     O2        0.599141484687183    0.198331385678599    0.648843277767145  0.0000
  O2     O2        0.087284014527728    0.790662245287311    0.373344968413716  0.0000
  O2     O2        0.407527925554044    0.190016981676097    0.378215402679594  0.0000
  O2     O2        0.009292274218901    0.016627493888198    0.515732414103742  0.0000
  O2     O2        0.520362003342871    0.007330502334956    0.488804179567811  0.0000
  O2     O2        0.983497999840170    0.009373120305049    0.270752296899617  0.0000
  O3     O3        0.494079105977193    0.957973254542512    0.247369977257016  0.0000
  O2     O2        0.010878561110325    0.017078732776727    0.764302774854943  0.0000
  O2     O2        0.483391712176737    0.987214543225385    0.731396582488499  0.0000
  O3     O3        0.594670549092541    0.211832589383178    0.124208162681337  0.0000
  O2     O2        0.913632928576741    0.795905674235651    0.112121050658064  0.0000
  O3     O3        0.423576605507326    0.218435867781892    0.891510569751411  0.0000
  O2     O2        0.100056924396407    0.814024682652507    0.903746450889042  0.0000
  O2     O2        0.371627177789985    0.893393131295561    0.897252791783842  0.0000
  O2     O2        0.126823620691493    0.157274140613560    0.887833447672855  0.0000
  O3     O3        0.634511535960044    0.854777775575519    0.128212043628612  0.0000
  O2     O2        0.875654474028063    0.134440699470319    0.122624997180650  0.0000
  O3     O3        0.511648457577237    0.953306339284620    0.978537196947527  0.0000
  O2     O2        0.008166352263578    0.045542774932731    0.019436301234984  0.0000
  O2     O2        0.134970627127339    0.468933717676147    0.312083227045877  0.0000
  O3     O3        0.369798104584486    0.510783863098005    0.310664800548777  0.0000
  O2     O2        0.866723038498315    0.483876002181678    0.695719260897682  0.0000
  O2     O2        0.642196764903719    0.521464368630971    0.707755356865389  0.0000
  O2     O2        0.259655723327516    0.267051722249075    0.328190855331114  0.0000
  O3     O3        0.236994121417045    0.722953959043489    0.344812243857936  0.0000
  O2     O2        0.746814955651627    0.266129430154141    0.693453155352628  0.0000
  O2     O2        0.762030886002554    0.738862069845768    0.688749761675979  0.0000
  O2     O2        0.169472143543830    0.237297740396716    0.128193332309493  0.0000
  O3     O3        0.342660569846587    0.799336741566686    0.141065604303924  0.0000
  O2     O2        0.848342769491218    0.236905691619485    0.880565171169511  0.0000
  O2     O2        0.663092003372630    0.774535822957553    0.881828715729601  0.0000
  O2     O2        0.867349274107249    0.724752816660923    0.876765988026845  0.0000
  O2     O2        0.640999787541665    0.267057092332921    0.884868017144620  0.0000
  O2     O2        0.143766809371828    0.732196864730418    0.141912526533949  0.0000
  O3     O3        0.366021200670056    0.258264627770457    0.139955109540791  0.0000
  O2     O2        0.637463690371343    0.526333448077332    0.055680473259396  0.0000
  O2     O2        0.873024228919773    0.473032675509415    0.058970789749558  0.0000
  O3     O3        0.378347756449960    0.555082447176045    0.972934642183638  0.0000
  O2     O2        0.133474780263675    0.487811479757412    0.959960384647534  0.0000
  O2     O2        0.744269520107981    0.278228434147167    0.070347556041256  0.0000
  O2     O2        0.766038937073779    0.718730450026212    0.068772722093103  0.0000
  O3     O3        0.261864820570084    0.299524174003266    0.928161038844693  0.0000
  O2     O2        0.245800045712149    0.720142774679138    0.951886574175252  0.0000
