data_c00153.vasp
_audit_creation_method             Generated by GULP
_audit_author_name                 Salvador R. G. Balestra
_symmetry_space_group_name_H-M     'P 1             '
_symmetry_Int_Tables_number        1

loop_
_symmetry_equiv_pos_site_id
_symmetry_equiv_pos_as_xyz
_cell_length_a                       17.1105
_cell_length_b                        7.6025
_cell_length_c                       10.3107
_cell_angle_alpha                   88.8744
_cell_angle_beta                    89.8494
_cell_angle_gamma                   89.7711

loop_
_atom_site_label
_atom_site_type_symbol
_atom_site_fract_x
_atom_site_fract_y
_atom_site_fract_z
_atom_site_charge
  Ge     Ge        0.556730000000016    0.000000000000000    0.122129999999970  0.0000
  Ge     Ge        0.344865322588050    0.680267140664807    0.277951493575652  0.0000
  Ge     Ge        0.665458064086086    0.295417916901741    0.705562547540221  0.0000
  Si     Si        0.044736153871989    0.005706275597175    0.356407197130083  0.0000
  Si     Si        0.448190099569729    0.983369748831988    0.372447526289839  0.0000
  Si     Si        0.951753161126024    0.024981585190799    0.621379258928943  0.0000
  Si     Si        0.545614324006047    0.014609659868506    0.625277783185439  0.0000
  Si     Si        0.941896735092472    0.012424746586209    0.106116878559359  0.0000
  Si     Si        0.443235198925660    0.014466128083038    0.879945855049537  0.0000
  Si     Si        0.057351662229972    0.018585354988255    0.870999543742231  0.0000
  Si     Si        0.150714396587036    0.310281750940549    0.263343375652143  0.0000
  Si     Si        0.848974642187510    0.333347638131784    0.702584209875529  0.0000
  Si     Si        0.652756015231881    0.710432961646077    0.707765035032083  0.0000
  Si     Si        0.833356891845835    0.737246384513674    0.706669415607756  0.0000
  Si     Si        0.161285855639675    0.715415910593637    0.271694544854935  0.0000
  Si     Si        0.330353922073222    0.269940236035074    0.264451879200630  0.0000
  Si     Si        0.669924900938829    0.284275013368724    0.010390466009914  0.0000
  Si     Si        0.831354232303249    0.727409085879884    0.010020225654373  0.0000
  Si     Si        0.330664509048709    0.297949483503222    0.960184326924439  0.0000
  Si     Si        0.167814571348914    0.729678607434775    0.967727012468699  0.0000
  Si     Si        0.349026428685530    0.696185098809064    0.969359676453553  0.0000
  Si     Si        0.150835212736638    0.332150566273875    0.960903083477866  0.0000
  Si     Si        0.651530365208762    0.688405480772574    0.007812235592006  0.0000
  Si     Si        0.849730203140479    0.331221350572535    0.006809491075612  0.0000
  O2     O2        0.091625867124045    0.188258337799878    0.344121945730464  0.0000
  O3     O3        0.412127669002951    0.790114934856168    0.368660359477256  0.0000
  O2     O2        0.911958498214765    0.217948893643749    0.624466195275327  0.0000
  O2     O2        0.594869710846086    0.832625077867945    0.622835239052496  0.0000
  O2     O2        0.884090832720309    0.877933375152401    0.626118119324381  0.0000
  O3     O3        0.606959673811630    0.171162508097464    0.608566675341515  0.0000
  O2     O2        0.104506261858784    0.841638541446994    0.351643956280847  0.0000
  O2     O2        0.376835769970765    0.116276616680571    0.338812125001070  0.0000
  O2     O2        0.000432327029569    0.002338010730322    0.491690140927573  0.0000
  O2     O2        0.480340371639817    0.019419903770385    0.515149874935383  0.0000
  O2     O2        0.980372813146852    0.990266762698439    0.245394861938596  0.0000
  O3     O3        0.520471947330440    0.008855117942713    0.276253661460961  0.0000
  O2     O2        0.011391631389158    0.996713071812812    0.739042938126696  0.0000
  O2     O2        0.501359536152504    0.036771829684645    0.760996016485901  0.0000
  O3     O3        0.630251037987157    0.154072053694989    0.111772651018556  0.0000
  O2     O2        0.873094751135614    0.869485107848899    0.098038407039147  0.0000
  O2     O2        0.374735398127730    0.161764946184588    0.868611412117932  0.0000
  O2     O2        0.127018273058751    0.875626754916310    0.876890826616328  0.0000
  O2     O2        0.406114851965936    0.818678525565137    0.882292522172687  0.0000
  O2     O2        0.092880050882601    0.215344013778139    0.876002430857554  0.0000
  O3     O3        0.592365851110115    0.790041556753253    0.097848444040856  0.0000
  O2     O2        0.907932936101552    0.209752732929562    0.090908962699606  0.0000
  O3     O3        0.486565843457501    0.057276853906267    0.011836313635123  0.0000
  O2     O2        0.003083659669118    0.973662609515647    0.993265327245559  0.0000
  O2     O2        0.134235717424188    0.513601187637403    0.294343126214979  0.0000
  O3     O3        0.362318970629442    0.458658836604525    0.302048956728879  0.0000
  O2     O2        0.863135111515852    0.540872954815268    0.674984980787954  0.0000
  O3     O3        0.634478953419021    0.509801191050212    0.683708137399314  0.0000
  O2     O2        0.238975837256834    0.258918221555660    0.303241695757248  0.0000
  O3     O3        0.249866085868609    0.732694271958085    0.318137236796139  0.0000
  O3     O3        0.762482316609688    0.282592959806357    0.660367663044154  0.0000
  O2     O2        0.742377585182227    0.755351966092599    0.667727736523044  0.0000
  O2     O2        0.138126245028928    0.277002438992690    0.111059254448370  0.0000
  O3     O3        0.364557065581045    0.738386399618563    0.118244111744547  0.0000
  O2     O2        0.861023320683583    0.290970643945685    0.855289619035495  0.0000
  O2     O2        0.639659429819013    0.755011722371752    0.859280260801008  0.0000
  O2     O2        0.841794945566738    0.777524303932659    0.858675498023550  0.0000
  O3     O3        0.657633398722909    0.220850781794999    0.864291244255374  0.0000
  O2     O2        0.157157650850226    0.769634528776598    0.119566748744956  0.0000
  O2     O2        0.338866671343405    0.241604754996253    0.110704050077228  0.0000
  O2     O2        0.634140369056451    0.481078477451673    0.018781407346846  0.0000
  O2     O2        0.868676387910331    0.534181024632288    0.036520291489229  0.0000
  O2     O2        0.367444210653799    0.492312271416200    0.939994766276953  0.0000
  O2     O2        0.131665163216693    0.538219200260353    0.937561878032120  0.0000
  O2     O2        0.761251926116433    0.289100548260270    0.045917980461793  0.0000
  O2     O2        0.740516276559029    0.727881156091925    0.049409820875870  0.0000
  O2     O2        0.240081367212352    0.296939630801984    0.919656242918874  0.0000
  O2     O2        0.259176312949783    0.735269728572122    0.933726576488251  0.0000
