data_c00168.vasp
_audit_creation_method             Generated by GULP
_audit_author_name                 Salvador R. G. Balestra
_symmetry_space_group_name_H-M     'P 1             '
_symmetry_Int_Tables_number        1

loop_
_symmetry_equiv_pos_site_id
_symmetry_equiv_pos_as_xyz
_cell_length_a                       17.1361
_cell_length_b                        7.6051
_cell_length_c                       10.2190
_cell_angle_alpha                   89.1505
_cell_angle_beta                    90.5632
_cell_angle_gamma                   90.3222

loop_
_atom_site_label
_atom_site_type_symbol
_atom_site_fract_x
_atom_site_fract_y
_atom_site_fract_z
_atom_site_charge
  Ge     Ge        0.556730000000016    0.000000000000000    0.122129999999970  0.0000
  Ge     Ge        0.833044124936431    0.284736059370596    0.720387147525514  0.0000
  Ge     Ge        0.350042156305296    0.333334936996020    0.979661528823989  0.0000
  Si     Si        0.051142877359400    0.985934529586562    0.383414271834239  0.0000
  Si     Si        0.446809304350907    0.003037848884183    0.376349844429436  0.0000
  Si     Si        0.951261586083269    0.001614258120763    0.638464713096687  0.0000
  Si     Si        0.546148226513350    0.010111649004214    0.634648926762022  0.0000
  Si     Si        0.944021157242053    0.992107293602782    0.136184617314823  0.0000
  Si     Si        0.443765970765162    0.017196760182989    0.878315436304462  0.0000
  Si     Si        0.054003748363721    0.009383252569329    0.896695010392141  0.0000
  Si     Si        0.165794628441714    0.281370070796448    0.283341252976671  0.0000
  Si     Si        0.332720620536296    0.715781694408619    0.296087416916194  0.0000
  Si     Si        0.664197753169771    0.723863268864856    0.733217622854305  0.0000
  Si     Si        0.844221587507785    0.696842750769311    0.722221770196183  0.0000
  Si     Si        0.650044516291887    0.315329918886424    0.730978204525543  0.0000
  Si     Si        0.152785162307295    0.683941455348522    0.290925301180454  0.0000
  Si     Si        0.344732751761262    0.311149254267071    0.291607462827172  0.0000
  Si     Si        0.654747252911380    0.319149335041170    0.036110738602724  0.0000
  Si     Si        0.851612309704426    0.678916673642582    0.027962325459869  0.0000
  Si     Si        0.150699691693952    0.694726493143223    0.986738198636474  0.0000
  Si     Si        0.331502452137836    0.737863519562058    0.990013170324892  0.0000
  Si     Si        0.167199388228395    0.298341332912963    0.975623823649448  0.0000
  Si     Si        0.672418286704416    0.717721929222960    0.037308105326930  0.0000
  Si     Si        0.834839001659336    0.278459255248228    0.031739742679123  0.0000
  O2     O2        0.113082055652828    0.142968585450673    0.361715971403651  0.0000
  O2     O2        0.382728372169793    0.845368394657197    0.387770762268249  0.0000
  O3     O3        0.890226313302005    0.158474406640903    0.622612287640519  0.0000
  O2     O2        0.610465462360327    0.857392531233403    0.650645905832378  0.0000
  O2     O2        0.900893590902954    0.821811161229419    0.638196726413076  0.0000
  O2     O2        0.586017234159711    0.201430645395281    0.652444585970504  0.0000
  O2     O2        0.094922130794879    0.799129922306202    0.376632899001691  0.0000
  O2     O2        0.402941373203171    0.190482296755571    0.378635631986746  0.0000
  O2     O2        0.014976729182936    0.001268576900687    0.525821574814077  0.0000
  O2     O2        0.510995136562985    0.996476774606708    0.490177370199420  0.0000
  O2     O2        0.980514114403922    0.998140154660569    0.280086233642144  0.0000
  O3     O3        0.491868478056228    0.971000924877066    0.243808875119472  0.0000
  O2     O2        0.996938658898653    0.026497889708864    0.774500106221321  0.0000
  O2     O2        0.473957116071363    0.984653750529409    0.732435321359798  0.0000
  O3     O3        0.597049068884125    0.208625590314939    0.125620678429164  0.0000
  O2     O2        0.910491075218796    0.796380624817668    0.112859444976641  0.0000
  O3     O3        0.418586519433358    0.218302852598644    0.895078850260475  0.0000
  O2     O2        0.095002338278632    0.818560318784946    0.898995130545846  0.0000
  O2     O2        0.366809787513201    0.898707914490484    0.906766276299620  0.0000
  O2     O2        0.118941222436414    0.162637774598904    0.887584761782755  0.0000
  O3     O3        0.631827562317687    0.849493242545469    0.132558438121420  0.0000
  O2     O2        0.876688138678688    0.138676404580973    0.127842158524123  0.0000
  O3     O3        0.511229819394202    0.957043536823205    0.976053628311347  0.0000
  O2     O2        0.008339597106846    0.041975586204857    0.029763475282809  0.0000
  O2     O2        0.135246443938668    0.477295474770884    0.313378392479883  0.0000
  O2     O2        0.362306415568810    0.516324535968215    0.318394819998608  0.0000
  O3     O3        0.861688682102024    0.498392489954388    0.689725126858184  0.0000
  O2     O2        0.635631177773916    0.523981933046021    0.708781730200081  0.0000
  O2     O2        0.255637073611902    0.264434565737103    0.330080726366036  0.0000
  O2     O2        0.241671356724952    0.727649650172058    0.332726440573564  0.0000
  O3     O3        0.735094061399642    0.265563660289598    0.682045613571678  0.0000
  O2     O2        0.753958388724788    0.743916138642161    0.688112836303174  0.0000
  O2     O2        0.163470120698633    0.243936782096966    0.128913636760673  0.0000
  O2     O2        0.342552571369902    0.773139462450347    0.144693748360946  0.0000
  O3     O3        0.844591948363083    0.223276899026425    0.882615211825529  0.0000
  O2     O2        0.659580885383525    0.774224293621746    0.885409846482133  0.0000
  O2     O2        0.860731351441755    0.730580549466442    0.875822272271540  0.0000
  O2     O2        0.640862343048078    0.267024358636107    0.884575477881382  0.0000
  O2     O2        0.137683384648573    0.736024536951968    0.139274546941945  0.0000
  O3     O3        0.360565429980212    0.269581405075642    0.141504065871329  0.0000
  O2     O2        0.636324237924452    0.523148774399425    0.058010677788654  0.0000
  O2     O2        0.871676247741554    0.473600330832926    0.050544013745088  0.0000
  O3     O3        0.371086281411316    0.554181827851984    0.957968523281231  0.0000
  O2     O2        0.130213581488297    0.492651058252413    0.955962300377448  0.0000
  O2     O2        0.744481151301202    0.278691349610471    0.071934870958742  0.0000
  O2     O2        0.763954869721061    0.716136503499406    0.072569809687737  0.0000
  O3     O3        0.255462060769026    0.296228793300944    0.928728312093049  0.0000
  O2     O2        0.240439437309835    0.729820758916369    0.951957839120254  0.0000
