data_c00148.vasp
_audit_creation_method             Generated by GULP
_audit_author_name                 Salvador R. G. Balestra
_symmetry_space_group_name_H-M     'P 1             '
_symmetry_Int_Tables_number        1

loop_
_symmetry_equiv_pos_site_id
_symmetry_equiv_pos_as_xyz
_cell_length_a                       17.0091
_cell_length_b                        7.5778
_cell_length_c                       10.3362
_cell_angle_alpha                   89.9094
_cell_angle_beta                    90.1130
_cell_angle_gamma                   90.3079

loop_
_atom_site_label
_atom_site_type_symbol
_atom_site_fract_x
_atom_site_fract_y
_atom_site_fract_z
_atom_site_charge
  Ge     Ge        0.556730000000016    0.000000000000000    0.122129999999970  0.0000
  Ge     Ge        0.149505721113794    0.347494641430958    0.273380470829709  0.0000
  Ge     Ge        0.647539786915651    0.673254931069020    0.017660006173820  0.0000
  Si     Si        0.044646904850842    0.037734115848169    0.355510025805861  0.0000
  Si     Si        0.451381971747090    0.028908056223381    0.369270644276605  0.0000
  Si     Si        0.949123278874845    0.029752848963934    0.614645800030734  0.0000
  Si     Si        0.547612378166741    0.015402132152406    0.627852842644236  0.0000
  Si     Si        0.944816257086706    0.021446353405738    0.098281197046567  0.0000
  Si     Si        0.444238821294692    0.028468996347324    0.879975908935845  0.0000
  Si     Si        0.057842383854396    0.029175371584509    0.861526652776847  0.0000
  Si     Si        0.346908190449390    0.723087860103920    0.265714282354895  0.0000
  Si     Si        0.847710560973371    0.337689411239884    0.698633531783587  0.0000
  Si     Si        0.650323479570601    0.705761107181663    0.710695406613120  0.0000
  Si     Si        0.830130909065123    0.741511005629472    0.708696850925800  0.0000
  Si     Si        0.667004662078611    0.298457551243694    0.701962896245657  0.0000
  Si     Si        0.165612807059906    0.761187493782270    0.263349092190368  0.0000
  Si     Si        0.333881460622746    0.315696367996154    0.272877224758220  0.0000
  Si     Si        0.671976168539869    0.272423611664348    0.002787386314981  0.0000
  Si     Si        0.831129085792356    0.730819004648198    0.012298361366725  0.0000
  Si     Si        0.331626622106208    0.311553725365505    0.969242532036016  0.0000
  Si     Si        0.167829659282015    0.745727279087582    0.961158607452088  0.0000
  Si     Si        0.349380653801861    0.710261089067922    0.965203940189738  0.0000
  Si     Si        0.149802299045538    0.344481086506714    0.966105173905783  0.0000
  Si     Si        0.853124291216812    0.337924814731138    0.998758894548119  0.0000
  O3     O3        0.081105310302524    0.231982895634233    0.362309685375542  0.0000
  O2     O2        0.407650715225943    0.842144595669938    0.345489812877217  0.0000
  O2     O2        0.907450921257529    0.221598719896924    0.613656358335338  0.0000
  O2     O2        0.589559848877155    0.824390758524754    0.628051831669701  0.0000
  O2     O2        0.882104583516105    0.881057059555504    0.630315311054307  0.0000
  O2     O2        0.614424965610440    0.167673255729318    0.614573524141228  0.0000
  O2     O2        0.119145802212329    0.906469609666322    0.344829577923482  0.0000
  O2     O2        0.390135488189348    0.188860112390160    0.354721800599652  0.0000
  O2     O2        0.993047291621044    0.997033178817845    0.480844896050195  0.0000
  O2     O2        0.485972395335447    0.027661571648340    0.512471506695557  0.0000
  O2     O2        0.989095287121601    0.007553466251986    0.232767616910242  0.0000
  O3     O3        0.523692159957401    0.052671320473618    0.273043183901401  0.0000
  O2     O2        0.014076342773313    0.015051221618848    0.726045960261514  0.0000
  O2     O2        0.498476141798081    0.050425062483566    0.756661169631535  0.0000
  O3     O3        0.643816910638391    0.111862700904633    0.088215412216015  0.0000
  O2     O2        0.875860621465307    0.876033636738784    0.097624585555613  0.0000
  O2     O2        0.373596670651521    0.170454123779607    0.878055564799818  0.0000
  O2     O2        0.126845996081890    0.883753400886940    0.865387757409033  0.0000
  O2     O2        0.408676633864408    0.829178440175302    0.881138892750960  0.0000
  O2     O2        0.093828754506272    0.225824798586342    0.875160575879073  0.0000
  O1     O1        0.580754037665969    0.782540041464849    0.109860051606202  0.0000
  O2     O2        0.909714777825025    0.217826343848799    0.085282552096959  0.0000
  O3     O3        0.491227723510527    0.073497054445951    0.008513298335678  0.0000
  O2     O2        0.000879665813026    0.979010607370811    0.978757867689631  0.0000
  O3     O3        0.133628865291999    0.568851605858911    0.296986211641634  0.0000
  O2     O2        0.361546601190255    0.517864921129612    0.296215314608489  0.0000
  O2     O2        0.862565992078059    0.545860390232967    0.676976395072945  0.0000
  O2     O2        0.635205428498115    0.497675761447437    0.685692609982301  0.0000
  O3     O3        0.244638573677638    0.295036123020902    0.317201455189042  0.0000
  O2     O2        0.257786490979496    0.773969357078087    0.301049172781302  0.0000
  O2     O2        0.758159138138170    0.289859558122652    0.658980868162967  0.0000
  O2     O2        0.739086396263146    0.754808798539772    0.665981234385441  0.0000
  O3     O3        0.133796828827137    0.292602326702841    0.113320058881218  0.0000
  O2     O2        0.363810937987239    0.762113580505925    0.114828538287966  0.0000
  O2     O2        0.864869350891281    0.288989113045156    0.848085452481758  0.0000
  O3     O3        0.636756051143869    0.747476135393050    0.859999181899209  0.0000
  O2     O2        0.833368441405549    0.784054297902166    0.860922777561083  0.0000
  O2     O2        0.661160907640362    0.233887906665259    0.849887833973158  0.0000
  O2     O2        0.156658462334551    0.801075001603095    0.110410006974904  0.0000
  O2     O2        0.340028175956056    0.265892547739696    0.121163224754107  0.0000
  O3     O3        0.626372446843993    0.452209499698703    0.034224722795338  0.0000
  O2     O2        0.874652306419606    0.541502605152875    0.027075249560028  0.0000
  O2     O2        0.369002390547408    0.505157236283627    0.942118335872629  0.0000
  O2     O2        0.131218801678564    0.550551357230780    0.940728028020037  0.0000
  O2     O2        0.763081163984086    0.307071767140805    0.036088589721263  0.0000
  O3     O3        0.743359556900681    0.718312931965913    0.063221645232841  0.0000
  O2     O2        0.240371946324221    0.308998205533183    0.931206357183441  0.0000
  O2     O2        0.259751186838872    0.747371799215196    0.925868118434581  0.0000
