data_c00150.vasp
_audit_creation_method             Generated by GULP
_audit_author_name                 Salvador R. G. Balestra
_symmetry_space_group_name_H-M     'P 1             '
_symmetry_Int_Tables_number        1

loop_
_symmetry_equiv_pos_site_id
_symmetry_equiv_pos_as_xyz
_cell_length_a                       17.1876
_cell_length_b                        7.6320
_cell_length_c                       10.1923
_cell_angle_alpha                   89.2326
_cell_angle_beta                    90.2467
_cell_angle_gamma                   89.8907

loop_
_atom_site_label
_atom_site_type_symbol
_atom_site_fract_x
_atom_site_fract_y
_atom_site_fract_z
_atom_site_charge
  Ge     Ge        0.556730000000016    0.000000000000000    0.122129999999970  0.0000
  Ge     Ge        0.336913933477084    0.707037661697218    0.300197275411419  0.0000
  Ge     Ge        0.836152417265711    0.288716864435368    0.723940534172953  0.0000
  Si     Si        0.051057856542972    0.980585202531283    0.386879024078801  0.0000
  Si     Si        0.451443453330896    0.993997571296855    0.382087397023772  0.0000
  Si     Si        0.953247503752790    0.999629179997821    0.644791698277909  0.0000
  Si     Si        0.550016099374686    0.016995699852020    0.637422738108406  0.0000
  Si     Si        0.945213118356048    0.989093773175318    0.140258657791517  0.0000
  Si     Si        0.443018185324506    0.000562586190114    0.877860273644649  0.0000
  Si     Si        0.057486768234077    0.997823581092040    0.901123128950756  0.0000
  Si     Si        0.164869482533014    0.274121909331777    0.289692173920677  0.0000
  Si     Si        0.665337285551217    0.724965018248493    0.739288494781472  0.0000
  Si     Si        0.844878297557103    0.699024129679599    0.728532918776402  0.0000
  Si     Si        0.653740119437020    0.318683709629062    0.734266114181195  0.0000
  Si     Si        0.154090153899962    0.676872439924086    0.294421885528925  0.0000
  Si     Si        0.344820076399964    0.296290166313562    0.295912388616697  0.0000
  Si     Si        0.656925566364771    0.317066874899482    0.040984040764781  0.0000
  Si     Si        0.851646679726232    0.678401705953962    0.035170390442150  0.0000
  Si     Si        0.347385553179012    0.309573526345496    0.989452776784713  0.0000
  Si     Si        0.155790482741180    0.682988457029341    0.986274677388112  0.0000
  Si     Si        0.335639748708493    0.712063174470743    0.987716834624792  0.0000
  Si     Si        0.167955225293284    0.285939060711755    0.982715179463222  0.0000
  Si     Si        0.672874191235327    0.714527394338316    0.044519178046525  0.0000
  Si     Si        0.836396922761481    0.278840773253302    0.036265339130692  0.0000
  O2     O2        0.113561687044901    0.136114771015788    0.370216108478920  0.0000
  O3     O3        0.392662845767584    0.833501448531959    0.401761486524229  0.0000
  O3     O3        0.895447734819920    0.162514045421958    0.628661262141357  0.0000
  O2     O2        0.611660402333976    0.859840543762664    0.658333088327183  0.0000
  O2     O2        0.900087788663631    0.826061105749087    0.644884062518868  0.0000
  O2     O2        0.590883972282567    0.205072745801238    0.655150331714126  0.0000
  O2     O2        0.092340193069615    0.792452959094867    0.372891161926316  0.0000
  O2     O2        0.400522864575696    0.171767063846109    0.381801409824151  0.0000
  O2     O2        0.016168840344390    0.991477580678473    0.530895667339035  0.0000
  O2     O2        0.519321709426528    0.005482252608920    0.489226833766752  0.0000
  O2     O2        0.980423586473192    0.000358057464676    0.284858469325228  0.0000
  O3     O3        0.490878017766516    0.965607362909692    0.242383232685252  0.0000
  O2     O2        0.000262592785999    0.017408407810755    0.779875562226745  0.0000
  O2     O2        0.474890701967329    0.999480701123963    0.730006134841507  0.0000
  O3     O3        0.598593525167153    0.205336570833243    0.128092176392322  0.0000
  O2     O2        0.909767803960530    0.795571730345862    0.120261971213398  0.0000
  O2     O2        0.405322027499916    0.190868642412422    0.906088599759975  0.0000
  O2     O2        0.098997288582034    0.807638271736842    0.901344988052199  0.0000
  O2     O2        0.379568317099983    0.846297219076997    0.891587142751344  0.0000
  O2     O2        0.122341435176298    0.150279203313655    0.892228030092222  0.0000
  O3     O3        0.630544547792343    0.846414271275251    0.137835646632845  0.0000
  O2     O2        0.879655582294883    0.138936633849329    0.129660851163433  0.0000
  O3     O3        0.514124041612214    0.961648942286792    0.973045818752462  0.0000
  O2     O2        0.011554330527909    0.028014346454185    0.034828794702794  0.0000
  O2     O2        0.137552080417830    0.471218911386325    0.322086509396864  0.0000
  O3     O3        0.365217000153736    0.493287826557636    0.327160234659589  0.0000
  O3     O3        0.863946506918204    0.501927489800864    0.694431715161934  0.0000
  O2     O2        0.637591893007194    0.526240339234963    0.712480277356175  0.0000
  O2     O2        0.255142630847388    0.251975497363792    0.330274647497662  0.0000
  O3     O3        0.239981025309846    0.726232714861319    0.339652673213227  0.0000
  O3     O3        0.738860518500184    0.270610544877447    0.684031731069085  0.0000
  O2     O2        0.754883165967210    0.745151557457692    0.694273236114672  0.0000
  O2     O2        0.156229155628571    0.237299679599301    0.135394863809065  0.0000
  O3     O3        0.348932067853159    0.765996001823987    0.137113777853479  0.0000
  O3     O3        0.846573143265921    0.226209961019532    0.886297895120022  0.0000
  O2     O2        0.660200421009989    0.771234707304752    0.892397428262859  0.0000
  O2     O2        0.860845213818983    0.730554755882929    0.882763171325748  0.0000
  O2     O2        0.645290993741465    0.269363627897482    0.888019691502032  0.0000
  O2     O2        0.144176286885714    0.719527681200292    0.139821251407032  0.0000
  O2     O2        0.359713142817571    0.259196553162968    0.141949088854882  0.0000
  O2     O2        0.638175713844676    0.520069583582079    0.065514655723579  0.0000
  O2     O2        0.872030352194762    0.473463969051457    0.056766014276608  0.0000
  O2     O2        0.367501864244153    0.514172693164332    0.966771664529608  0.0000
  O2     O2        0.135830543590780    0.481802544980488    0.953453636136854  0.0000
  O2     O2        0.746319928251743    0.275989444545063    0.077988225384279  0.0000
  O2     O2        0.763998557683966    0.714836594874106    0.080305846590641  0.0000
  O2     O2        0.258758672419450    0.273605092136461    0.946620507658680  0.0000
  O2     O2        0.244834259805681    0.722006550282122    0.949910434773158  0.0000
