data_c00151.vasp
_audit_creation_method             Generated by GULP
_audit_author_name                 Salvador R. G. Balestra
_symmetry_space_group_name_H-M     'P 1             '
_symmetry_Int_Tables_number        1

loop_
_symmetry_equiv_pos_site_id
_symmetry_equiv_pos_as_xyz
_cell_length_a                       17.1657
_cell_length_b                        7.6228
_cell_length_c                       10.2913
_cell_angle_alpha                   90.1572
_cell_angle_beta                    89.4382
_cell_angle_gamma                   89.4487

loop_
_atom_site_label
_atom_site_type_symbol
_atom_site_fract_x
_atom_site_fract_y
_atom_site_fract_z
_atom_site_charge
  Ge     Ge        0.556730000000016    0.000000000000000    0.122129999999970  0.0000
  Ge     Ge        0.333501355713474    0.689811659945788    0.272088084800762  0.0000
  Ge     Ge        0.665040219461836    0.707732954127282    0.702431014678812  0.0000
  Si     Si        0.042537927008665    0.978521254396847    0.351661726055015  0.0000
  Si     Si        0.447284988850211    0.982658360427280    0.372721887820930  0.0000
  Si     Si        0.949848995544521    0.970084391287849    0.617962043882090  0.0000
  Si     Si        0.546503494423891    0.994537764797818    0.624848114884245  0.0000
  Si     Si        0.939856340617679    0.977751217027711    0.102153401196484  0.0000
  Si     Si        0.443915971612789    0.978252130078699    0.879652666997078  0.0000
  Si     Si        0.055950227288022    0.985843166444784    0.866701192027321  0.0000
  Si     Si        0.156593213289528    0.268872920313765    0.259516486245922  0.0000
  Si     Si        0.832399802404786    0.260897370420327    0.704550225172193  0.0000
  Si     Si        0.847810650207112    0.662572517771672    0.698281620630129  0.0000
  Si     Si        0.652212595710743    0.294743306936233    0.707779105270436  0.0000
  Si     Si        0.151035883792094    0.674558408807948    0.266709803934063  0.0000
  Si     Si        0.336866037695672    0.277006851575245    0.266077304377047  0.0000
  Si     Si        0.650556017424287    0.312846290650214    0.008520511248866  0.0000
  Si     Si        0.848769820266002    0.661929234567651    0.003405148574838  0.0000
  Si     Si        0.343443624737509    0.290378075110002    0.963193825625472  0.0000
  Si     Si        0.154638782371602    0.673838791605457    0.961328666675052  0.0000
  Si     Si        0.334137460721756    0.691899211034656    0.961981173675217  0.0000
  Si     Si        0.163078944869266    0.275230762957567    0.956812075452585  0.0000
  Si     Si        0.669728821411105    0.714833469076272    0.008549092476011  0.0000
  Si     Si        0.829941860925152    0.267677987734795    0.008682715982080  0.0000
  O2     O2        0.102896544116526    0.138544788802662    0.341232387761408  0.0000
  O3     O3        0.397863891350825    0.806713479755289    0.362900148156555  0.0000
  O2     O2        0.882327950171184    0.118742853549161    0.623963080147069  0.0000
  O3     O3        0.607836090364352    0.837192013987376    0.604952042584779  0.0000
  O2     O2        0.910591065918025    0.778466125484126    0.620240878531816  0.0000
  O2     O2        0.594846051670830    0.175127809963249    0.624262501440416  0.0000
  O2     O2        0.088418615757059    0.793505094177944    0.343796282267971  0.0000
  O2     O2        0.388622925182393    0.144254586182315    0.348015210888654  0.0000
  O2     O2        0.998753367726681    0.992954639172519    0.487711105799035  0.0000
  O2     O2        0.480808247810890    0.001654394293795    0.516818778855992  0.0000
  O2     O2        0.977912391631948    0.991843745918725    0.241600878026710  0.0000
  O3     O3        0.520762773425874    0.985420823310138    0.277000096901219  0.0000
  O2     O2        0.008952675874985    0.993451255443502    0.735265812696120  0.0000
  O2     O2        0.504285215610341    0.963783645587267    0.762573007931356  0.0000
  O3     O3        0.591497309028060    0.209767158588486    0.098729647119705  0.0000
  O2     O2        0.907295572176782    0.781606238328337    0.084242500979323  0.0000
  O2     O2        0.400649443241982    0.168281461442339    0.877206323374771  0.0000
  O2     O2        0.098705611348080    0.797477590127479    0.877619142355472  0.0000
  O2     O2        0.381206393885746    0.821792268272408    0.868036869464125  0.0000
  O2     O2        0.119069260526352    0.141151208178174    0.863743036025483  0.0000
  O3     O3        0.630721126694830    0.846336171205756    0.109129352085109  0.0000
  O2     O2        0.870722561643190    0.121591592428530    0.096674531792891  0.0000
  O3     O3        0.485991731916567    0.945690668477507    0.014468012979045  0.0000
  O2     O2        0.000904782358250    0.022766359981275    0.989694639504941  0.0000
  O2     O2        0.132615088066175    0.469671412431565    0.290858603229495  0.0000
  O3     O3        0.358068239769719    0.473397364847810    0.299739159092880  0.0000
  O2     O2        0.862603328691644    0.455785704152126    0.670825142133772  0.0000
  O3     O3        0.633674105123610    0.495465294500092    0.681940558727235  0.0000
  O2     O2        0.246385896668409    0.238568107267630    0.298231822666890  0.0000
  O3     O3        0.236765540569764    0.719174551966779    0.314903933963659  0.0000
  O2     O2        0.741591116213398    0.247495729098740    0.667330592440326  0.0000
  O3     O3        0.761771428934529    0.715969219241839    0.655730099494481  0.0000
  O2     O2        0.147758996757620    0.226399164335115    0.107038114549275  0.0000
  O3     O3        0.344067191378560    0.746225888829458    0.111090684845379  0.0000
  O2     O2        0.840910800228761    0.219761449715951    0.857162069284386  0.0000
  O3     O3        0.657676702153120    0.778835980520537    0.861612631947470  0.0000
  O2     O2        0.859038175064271    0.701624255780021    0.851012157404625  0.0000
  O2     O2        0.638818443617107    0.250044921761677    0.859997156642116  0.0000
  O2     O2        0.144254671561746    0.717202043604638    0.113605267578869  0.0000
  O2     O2        0.354876834380176    0.240427447858287    0.113785914779527  0.0000
  O2     O2        0.633317669270439    0.520057360111588    0.019961714980080  0.0000
  O2     O2        0.867563196175420    0.458434736120024    0.034782836784123  0.0000
  O2     O2        0.365766974731149    0.492836210048903    0.941098699948853  0.0000
  O2     O2        0.132493590597189    0.472816808773589    0.930994447531956  0.0000
  O2     O2        0.739347183910497    0.270406622740747    0.048843697344154  0.0000
  O2     O2        0.760646345582655    0.706190121028584    0.044100330699423  0.0000
  O2     O2        0.254477867422148    0.259325323691887    0.923122521634752  0.0000
  O2     O2        0.243989367126678    0.705527469403751    0.921521053542010  0.0000
