data_c00193.vasp
_audit_creation_method             Generated by GULP
_audit_author_name                 Salvador R. G. Balestra
_symmetry_space_group_name_H-M     'P 1             '
_symmetry_Int_Tables_number        1

loop_
_symmetry_equiv_pos_site_id
_symmetry_equiv_pos_as_xyz
_cell_length_a                       17.0031
_cell_length_b                        7.5925
_cell_length_c                       10.2980
_cell_angle_alpha                   89.6773
_cell_angle_beta                    90.5768
_cell_angle_gamma                   89.5956

loop_
_atom_site_label
_atom_site_type_symbol
_atom_site_fract_x
_atom_site_fract_y
_atom_site_fract_z
_atom_site_charge
  Ge     Ge        0.556730000000016    0.000000000000000    0.122129999999970  0.0000
  Ge     Ge        0.858077771970507    0.668310331817688    0.024856566205229  0.0000
  Ge     Ge        0.166470660591509    0.282149773386616    0.980322958539231  0.0000
  Si     Si        0.046868284581507    0.004387029555646    0.375841602349676  0.0000
  Si     Si        0.445815676125907    0.010473844028950    0.376384556938582  0.0000
  Si     Si        0.942983090817337    0.993824839735033    0.629032015923815  0.0000
  Si     Si        0.542695860831982    0.015090412896448    0.637716648488899  0.0000
  Si     Si        0.950689746250256    0.989996928595589    0.118096060480664  0.0000
  Si     Si        0.441859968856202    0.003943910942630    0.885005895180102  0.0000
  Si     Si        0.055854815698254    0.001682369470272    0.875942298498827  0.0000
  Si     Si        0.162669341676219    0.288898223965213    0.288693058350908  0.0000
  Si     Si        0.330776626533532    0.724990423502326    0.291080954001691  0.0000
  Si     Si        0.827761790736753    0.283683520799856    0.714951229157410  0.0000
  Si     Si        0.662284523514200    0.724117147756193    0.735521756032409  0.0000
  Si     Si        0.841880928086311    0.688074862860950    0.715863086630647  0.0000
  Si     Si        0.647405616636843    0.317795842034779    0.729167252775057  0.0000
  Si     Si        0.148969832601949    0.696904381338203    0.282040596193263  0.0000
  Si     Si        0.342381673534075    0.322511185607021    0.296104747562753  0.0000
  Si     Si        0.652559082585823    0.318747441010652    0.029763055606664  0.0000
  Si     Si        0.349767441737875    0.322905678109140    0.990655804594748  0.0000
  Si     Si        0.147854011591650    0.687266552463714    0.982437255662681  0.0000
  Si     Si        0.331502660849678    0.720102822592913    0.988525138052355  0.0000
  Si     Si        0.674575454652511    0.716024337475385    0.038372572452244  0.0000
  Si     Si        0.833903092412763    0.266600994420465    0.019146956566122  0.0000
  O2     O2        0.110329899756937    0.161493312789065    0.377678748955401  0.0000
  O2     O2        0.378867739950679    0.859643057804660    0.380415788787956  0.0000
  O2     O2        0.878243457757473    0.150649046657435    0.627784361175312  0.0000
  O2     O2        0.606166404406826    0.859240730597761    0.658646499479540  0.0000
  O2     O2        0.898113195519773    0.807303153951164    0.626240849500129  0.0000
  O2     O2        0.585705868905410    0.203935244536122    0.646240996581336  0.0000
  O2     O2        0.090882196133349    0.815311044785842    0.367555691129031  0.0000
  O2     O2        0.403391989326057    0.201777567265486    0.377402816928252  0.0000
  O2     O2        0.997669769170985    0.010873609784073    0.505757074123276  0.0000
  O2     O2        0.505323188259347    0.994627918454389    0.496257916806957  0.0000
  O2     O2        0.986329115785534    0.034115546076903    0.257659185497826  0.0000
  O3     O3        0.495041502300946    0.978262172647179    0.248721450558613  0.0000
  O2     O2        0.998573014827038    0.009965689966497    0.754221760052366  0.0000
  O2     O2        0.471217755805309    0.003244686901597    0.737910867926642  0.0000
  O3     O3        0.595500039579300    0.209494456300258    0.119446829673894  0.0000
  O3     O3        0.929130828816358    0.786069370566141    0.106366820923228  0.0000
  O2     O2        0.415194300142936    0.202037045259289    0.923121026125417  0.0000
  O2     O2        0.094410060110989    0.807121470247006    0.887624945278458  0.0000
  O2     O2        0.369671007082375    0.867461976211604    0.897729714706724  0.0000
  O3     O3        0.124198726457663    0.143505385380078    0.869369875661287  0.0000
  O3     O3        0.633315358391437    0.850606655090028    0.132793357981510  0.0000
  O2     O2        0.870288710386778    0.102173338340364    0.097876657098803  0.0000
  O3     O3        0.510354975888129    0.940946140135435    0.979840241027545  0.0000
  O2     O2        0.010455004154998    0.053423227667642    0.007487903915018  0.0000
  O2     O2        0.131798641410401    0.490101041798264    0.302341420022369  0.0000
  O2     O2        0.360942373842780    0.527009323223825    0.322770177454615  0.0000
  O2     O2        0.857714476536719    0.481736989573705    0.688313150568026  0.0000
  O2     O2        0.630469175444490    0.526124416872227    0.712398998456354  0.0000
  O2     O2        0.253335641543935    0.278803551945267    0.337267653387773  0.0000
  O2     O2        0.238441155480627    0.740409433466371    0.322729168628918  0.0000
  O2     O2        0.735203933788112    0.271735174896890    0.680007952614100  0.0000
  O2     O2        0.751075376890831    0.736283097774718    0.682252854545199  0.0000
  O3     O3        0.158002237645497    0.223270048872506    0.141474821817000  0.0000
  O2     O2        0.343208742577590    0.771985179500630    0.139396702287299  0.0000
  O2     O2        0.839344000350952    0.231466593232320    0.865156221063581  0.0000
  O2     O2        0.665950948419255    0.774563255763164    0.886997131572060  0.0000
  O3     O3        0.862847706842612    0.729826910141645    0.863770299424775  0.0000
  O2     O2        0.637169074612165    0.263341351873342    0.879719631776513  0.0000
  O2     O2        0.133562579953218    0.747146687290989    0.131295417460716  0.0000
  O2     O2        0.352383399092348    0.280712707487289    0.144290013651865  0.0000
  O2     O2        0.634945508271630    0.523950686918021    0.051954432067386  0.0000
  O3     O3        0.878431029611591    0.447047313456667    0.048304796562346  0.0000
  O2     O2        0.370548869262570    0.528186301958363    0.964692343294343  0.0000
  O3     O3        0.124237078687635    0.488338776210840    0.961164110650108  0.0000
  O2     O2        0.743797931209730    0.280376059351050    0.063185555405940  0.0000
  O3     O3        0.765032916837403    0.707876124862895    0.080124827637200  0.0000
  O3     O3        0.264044700321354    0.282749739309350    0.936756809303333  0.0000
  O2     O2        0.239808676088220    0.711465370903040    0.951566928922239  0.0000
