data_c00191.vasp
_audit_creation_method             Generated by GULP
_audit_author_name                 Salvador R. G. Balestra
_symmetry_space_group_name_H-M     'P 1             '
_symmetry_Int_Tables_number        1

loop_
_symmetry_equiv_pos_site_id
_symmetry_equiv_pos_as_xyz
_cell_length_a                       16.9067
_cell_length_b                        7.6005
_cell_length_c                       10.3805
_cell_angle_alpha                   89.8241
_cell_angle_beta                    90.3150
_cell_angle_gamma                   90.3158

loop_
_atom_site_label
_atom_site_type_symbol
_atom_site_fract_x
_atom_site_fract_y
_atom_site_fract_z
_atom_site_charge
  Ge     Ge        0.556730000000016    0.000000000000000    0.122129999999970  0.0000
  Ge     Ge        0.828610325687570    0.734541757694054    0.016152722783794  0.0000
  Ge     Ge        0.162417832661757    0.732124332567086    0.972514146519141  0.0000
  Si     Si        0.047839097641770    0.020099771567784    0.367308922034323  0.0000
  Si     Si        0.449306487444191    0.007451791913813    0.371862428517607  0.0000
  Si     Si        0.943505495781413    0.026116157556074    0.619357658222872  0.0000
  Si     Si        0.542952157702491    0.003735909123723    0.635115014731760  0.0000
  Si     Si        0.943790734722402    0.016624253337579    0.112960218440858  0.0000
  Si     Si        0.440269367162700    0.015753792120985    0.886371507796831  0.0000
  Si     Si        0.049547987045144    0.013290230964326    0.871975923883843  0.0000
  Si     Si        0.150771316798333    0.325313958548336    0.278995403105097  0.0000
  Si     Si        0.344040017464449    0.699791881849156    0.276590340548354  0.0000
  Si     Si        0.844021235928063    0.332769013588138    0.706432198710685  0.0000
  Si     Si        0.646577564645005    0.693355620304552    0.718824121085587  0.0000
  Si     Si        0.827448088295720    0.737703787717064    0.709599691082419  0.0000
  Si     Si        0.661998225975786    0.290135087524678    0.714798172454574  0.0000
  Si     Si        0.162769797131884    0.732898052851709    0.278416530699334  0.0000
  Si     Si        0.332708108535058    0.296550541353376    0.276567403518088  0.0000
  Si     Si        0.671724312446672    0.280355086104140    0.013455264110103  0.0000
  Si     Si        0.327616388719322    0.296596374405516    0.976256549771992  0.0000
  Si     Si        0.347277459976322    0.693099653377583    0.974139982836041  0.0000
  Si     Si        0.143498760984075    0.327853113724155    0.980618414958887  0.0000
  Si     Si        0.644695214324417    0.674623727759320    0.020680415900972  0.0000
  Si     Si        0.855347212632395    0.335173088242981    0.004486297969811  0.0000
  O2     O2        0.093920636902140    0.207099542365197    0.367908388662681  0.0000
  O2     O2        0.406363265712663    0.819119576974679    0.353418343828448  0.0000
  O2     O2        0.900543191682984    0.215951377410934    0.616833078205819  0.0000
  O2     O2        0.584103037388582    0.812671365415003    0.641541251700177  0.0000
  O2     O2        0.877538410025150    0.871843453312794    0.621512428862242  0.0000
  O2     O2        0.610476987568572    0.155122244898174    0.629787129812794  0.0000
  O2     O2        0.110693404778951    0.860760071812786    0.366833402079810  0.0000
  O2     O2        0.385119818015826    0.162676332925022    0.359045638795525  0.0000
  O2     O2        0.995532459660279    0.005183406887805    0.493473093924504  0.0000
  O2     O2        0.487286590180624    0.014462436996020    0.512049269698095  0.0000
  O2     O2        0.990653641908985    0.006301545130152    0.245238798135564  0.0000
  O3     O3        0.519883027461726    0.031846056887337    0.272568760339459  0.0000
  O2     O2        0.000646734030671    0.010302988427108    0.741571290880136  0.0000
  O2     O2        0.487114822312811    0.037524005459641    0.755606324414293  0.0000
  O3     O3        0.640572188181764    0.129820321453831    0.105261272301023  0.0000
  O3     O3        0.870133846798396    0.885950798480517    0.118218470828963  0.0000
  O2     O2        0.365864376985823    0.149385604824683    0.886219923700702  0.0000
  O3     O3        0.119356431065144    0.874173755711959    0.865603031926258  0.0000
  O2     O2        0.410978478946838    0.813278813197658    0.899848461429577  0.0000
  O2     O2        0.086171208997131    0.206904074243026    0.895220430293576  0.0000
  O3     O3        0.581042612391520    0.781612920196669    0.100242395917454  0.0000
  O2     O2        0.914114643542502    0.215232714428314    0.088098004559325  0.0000
  O3     O3        0.492551858140760    0.074434746777861    0.006505961982084  0.0000
  O2     O2        0.996831711347124    0.949587286672207    0.993494153064283  0.0000
  O2     O2        0.133160300210486    0.531705471910797    0.297830548274264  0.0000
  O2     O2        0.362940783113402    0.495151297032746    0.303258516595007  0.0000
  O2     O2        0.859807622631727    0.540181274805708    0.685871188495629  0.0000
  O2     O2        0.628935675843897    0.487399655315229    0.693245857648371  0.0000
  O2     O2        0.241134952579979    0.281797958113996    0.317407266526164  0.0000
  O2     O2        0.255025425424801    0.745330492443409    0.319995348908095  0.0000
  O2     O2        0.753340878673137    0.285084839879830    0.671438026868225  0.0000
  O2     O2        0.734682073969204    0.742868811677927    0.671018621739157  0.0000
  O2     O2        0.134259211887296    0.273402510923864    0.130627449883252  0.0000
  O2     O2        0.353623791899727    0.741184950631688    0.125430314734272  0.0000
  O2     O2        0.864079701647295    0.283308037281680    0.854191543293457  0.0000
  O2     O2        0.639029953557765    0.733169773525394    0.870417312210670  0.0000
  O3     O3        0.835422643937662    0.796396107877011    0.856584932224260  0.0000
  O2     O2        0.657379102724780    0.229872737917224    0.863653302617954  0.0000
  O3     O3        0.154643756694847    0.794258535538320    0.131602508197749  0.0000
  O2     O2        0.339971967325644    0.246992672182027    0.126366167552938  0.0000
  O2     O2        0.628270815280842    0.466526562957476    0.038327546576706  0.0000
  O3     O3        0.876968542794935    0.535159322686376    0.030025051901267  0.0000
  O2     O2        0.367170400887059    0.487738452329955    0.950237176230112  0.0000
  O3     O3        0.119650355242283    0.526617845101983    0.957181467901500  0.0000
  O2     O2        0.764391853944264    0.304484745563441    0.043466447671800  0.0000
  O3     O3        0.732568326476208    0.720190674139745    0.067557929234737  0.0000
  O2     O2        0.235009101694957    0.302993267666820    0.941588122553028  0.0000
  O3     O3        0.259846231094435    0.730437859325527    0.925956094001957  0.0000
