data_c00115.vasp
_audit_creation_method             Generated by GULP
_audit_author_name                 Salvador R. G. Balestra
_symmetry_space_group_name_H-M     'P 1             '
_symmetry_Int_Tables_number        1

loop_
_symmetry_equiv_pos_site_id
_symmetry_equiv_pos_as_xyz
_cell_length_a                       17.1587
_cell_length_b                        7.6151
_cell_length_c                       10.2646
_cell_angle_alpha                   89.8258
_cell_angle_beta                    90.7823
_cell_angle_gamma                   90.1206

loop_
_atom_site_label
_atom_site_type_symbol
_atom_site_fract_x
_atom_site_fract_y
_atom_site_fract_z
_atom_site_charge
  Ge     Ge        0.052090000000021    0.000000000000000    0.372269999999958  0.0000
  Ge     Ge        0.845861862645630    0.679470745944797    0.040423955241104  0.0000
  Ge     Ge        0.329819703836138    0.719956714982514    0.970914921993473  0.0000
  Si     Si        0.452106346499546    0.011601589893612    0.372280935634558  0.0000
  Si     Si        0.948492963698691    0.000843134721899    0.632170811941823  0.0000
  Si     Si        0.551391185483991    0.013207246006810    0.633228344179092  0.0000
  Si     Si        0.549998410088226    0.995307899356395    0.117007664127350  0.0000
  Si     Si        0.943256018449714    0.996972745622486    0.118124614042548  0.0000
  Si     Si        0.438899567491657    0.006558057762847    0.875904668920916  0.0000
  Si     Si        0.052713705546075    0.993536367808178    0.880881713498338  0.0000
  Si     Si        0.171142756687638    0.284697369902567    0.292086304846126  0.0000
  Si     Si        0.336255601061313    0.724624452972543    0.280616717133741  0.0000
  Si     Si        0.834595362684377    0.293443017910389    0.725904104597046  0.0000
  Si     Si        0.665040172667030    0.718658373441778    0.723954906298212  0.0000
  Si     Si        0.844214811027487    0.698236233921525    0.729785381515634  0.0000
  Si     Si        0.656206419283078    0.315869265340171    0.714284919441833  0.0000
  Si     Si        0.157195369136531    0.688886049285304    0.287778813241065  0.0000
  Si     Si        0.350606442634185    0.318871347003502    0.281751153223908  0.0000
  Si     Si        0.648657977000327    0.308147020369270    0.017966708120883  0.0000
  Si     Si        0.345098794660393    0.316087469479851    0.979507627845615  0.0000
  Si     Si        0.147394297515261    0.680606673377477    0.983702358020949  0.0000
  Si     Si        0.163668770151517    0.280698752510938    0.990127405051461  0.0000
  Si     Si        0.662619621999233    0.706311158655479    0.029489554126350  0.0000
  Si     Si        0.827810232388646    0.276042153410751    0.031505462750099  0.0000
  O3     O3        0.124333966383396    0.158237419335687    0.385617667820586  0.0000
  O2     O2        0.387962412916055    0.856816115024852    0.367260689285727  0.0000
  O2     O2        0.889789391642160    0.164208313790697    0.647213441499088  0.0000
  O2     O2        0.611999995907411    0.852320148248525    0.641694230598316  0.0000
  O2     O2        0.901927605672655    0.817898318484591    0.645679831804961  0.0000
  O2     O2        0.599107897087170    0.195994789357942    0.626725509755294  0.0000
  O3     O3        0.097761180318602    0.798282001909269    0.372242358046168  0.0000
  O2     O2        0.410050280871838    0.201410917982903    0.366813375794163  0.0000
  O3     O3        0.983889443676073    0.010279066197744    0.490923118074509  0.0000
  O2     O2        0.498533657296959    0.993383896101462    0.506426830741536  0.0000
  O3     O3        0.001637656066269    0.047677606753987    0.231012402130374  0.0000
  O2     O2        0.513765441821622    0.991991489159814    0.258425535474807  0.0000
  O2     O2        0.020647377249104    0.011047167399397    0.734266799724551  0.0000
  O2     O2        0.495527205932402    0.011414713934652    0.755895588843456  0.0000
  O2     O2        0.589000492023173    0.185292838787908    0.094151642252698  0.0000
  O3     O3        0.911373819865040    0.799530739816041    0.132386337468838  0.0000
  O2     O2        0.396995632145243    0.194324832337491    0.888626518995271  0.0000
  O2     O2        0.085027923475024    0.796225659114099    0.902859948344199  0.0000
  O3     O3        0.373485647393174    0.858595418401670    0.862070081399771  0.0000
  O2     O2        0.120828109272832    0.137547640168033    0.900552230435751  0.0000
  O2     O2        0.613451866401022    0.841327507767114    0.113694011568721  0.0000
  O2     O2        0.866780030835610    0.121111774488901    0.115109927216865  0.0000
  O2     O2        0.484824816799316    0.954143658852122    0.008336180542248  0.0000
  O2     O2        0.983863496584983    0.030344080811725    0.979686918769781  0.0000
  O2     O2        0.141784023745197    0.483411091256587    0.311763927570826  0.0000
  O2     O2        0.367438618368828    0.525591801427484    0.301188925103881  0.0000
  O2     O2        0.863137711006079    0.493380258562921    0.704258715873897  0.0000
  O2     O2        0.637031771202060    0.520716647079677    0.691165500064003  0.0000
  O2     O2        0.263012756692390    0.274183542542330    0.325127998240335  0.0000
  O2     O2        0.246473838314695    0.736671000829407    0.325373312135776  0.0000
  O2     O2        0.745268210755933    0.275277191566616    0.675695606619781  0.0000
  O2     O2        0.755280166534026    0.740549611708681    0.685701125422915  0.0000
  O2     O2        0.156753734253764    0.226186833910866    0.141629422957204  0.0000
  O3     O3        0.341223416615324    0.782042994897766    0.131228255333602  0.0000
  O2     O2        0.837766108058910    0.244141351550731    0.877624512723333  0.0000
  O2     O2        0.658083459875368    0.759338945485438    0.877081998851174  0.0000
  O3     O3        0.857393885842306    0.741689105866313    0.880151892327216  0.0000
  O2     O2        0.642068725234605    0.265608769636734    0.864748149783604  0.0000
  O2     O2        0.142582298074606    0.736006299067364    0.135423151748538  0.0000
  O2     O2        0.361764043851815    0.268356197045271    0.130840829555483  0.0000
  O2     O2        0.627070088375588    0.510246651991413    0.045856994840937  0.0000
  O3     O3        0.866231328315828    0.461066522026646    0.067222679376753  0.0000
  O3     O3        0.368224118587690    0.513369741992448    0.950272628870104  0.0000
  O2     O2        0.126447593656052    0.473869433274448    0.967343543768657  0.0000
  O2     O2        0.736701693420820    0.274199610435601    0.066989428654239  0.0000
  O3     O3        0.750149573768441    0.713637214821848    0.081476030761352  0.0000
  O2     O2        0.253617303683653    0.285160011935133    0.948846409951268  0.0000
  O3     O3        0.232199498338205    0.717712017548540    0.930431504827698  0.0000
