data_c00123.vasp
_audit_creation_method             Generated by GULP
_audit_author_name                 Salvador R. G. Balestra
_symmetry_space_group_name_H-M     'P 1             '
_symmetry_Int_Tables_number        1

loop_
_symmetry_equiv_pos_site_id
_symmetry_equiv_pos_as_xyz
_cell_length_a                       16.8834
_cell_length_b                        7.5555
_cell_length_c                       10.4902
_cell_angle_alpha                   90.6019
_cell_angle_beta                    89.9681
_cell_angle_gamma                   90.1921

loop_
_atom_site_label
_atom_site_type_symbol
_atom_site_fract_x
_atom_site_fract_y
_atom_site_fract_z
_atom_site_charge
  Ge     Ge        0.556730000000016    0.000000000000000    0.122129999999970  0.0000
  Ge     Ge        0.942149402810782    0.024563558321659    0.116748121249358  0.0000
  Ge     Ge        0.147583238144319    0.338523224706407    0.285357397901296  0.0000
  Si     Si        0.043880651932792    0.030282421534841    0.373911554309254  0.0000
  Si     Si        0.452942713917404    0.013827327671041    0.374322501617470  0.0000
  Si     Si        0.949683771422754    0.017524906097452    0.631492670793858  0.0000
  Si     Si        0.545744182158340    0.998065312244585    0.635340925226421  0.0000
  Si     Si        0.442114875423728    0.008976458218459    0.884985535919009  0.0000
  Si     Si        0.055519959534770    0.008912200100430    0.878772006141217  0.0000
  Si     Si        0.348311213941993    0.707338192422840    0.274735845203444  0.0000
  Si     Si        0.849071011984275    0.329990218260286    0.716512362233800  0.0000
  Si     Si        0.646720897137736    0.687621928744271    0.719632389691927  0.0000
  Si     Si        0.828608351728453    0.736071508726913    0.718492905431448  0.0000
  Si     Si        0.667240407459763    0.281365271666545    0.718492008404354  0.0000
  Si     Si        0.165740318271088    0.753244903776055    0.273142424952744  0.0000
  Si     Si        0.333901596989011    0.298593482501063    0.281825455966481  0.0000
  Si     Si        0.673074130785494    0.277923133631504    0.014659581975747  0.0000
  Si     Si        0.824765217787486    0.743791892476145    0.014794385324315  0.0000
  Si     Si        0.329998272127376    0.290072356834359    0.983798235117329  0.0000
  Si     Si        0.167280509897393    0.730504182265867    0.975708686967349  0.0000
  Si     Si        0.350555791460678    0.689825205698840    0.979044473935574  0.0000
  Si     Si        0.145646283307578    0.329026663873241    0.983866394544426  0.0000
  Si     Si        0.643034243293167    0.674024791522068    0.015350913281567  0.0000
  Si     Si        0.854781962231065    0.347886112708838    0.012271899452442  0.0000
  O3     O3        0.078498906294556    0.227456173295367    0.374763397761260  0.0000
  O2     O2        0.408964223764723    0.825266497131005    0.356150347416055  0.0000
  O2     O2        0.909931259839758    0.212463737570880    0.633161044888345  0.0000
  O2     O2        0.585484780943561    0.803394058163139    0.637760020947156  0.0000
  O2     O2        0.879800984523198    0.871441410215690    0.635194744200057  0.0000
  O2     O2        0.615668856853028    0.144571226315868    0.634855247403436  0.0000
  O2     O2        0.120068862612554    0.903305572539758    0.352270479553968  0.0000
  O2     O2        0.389606368892218    0.172398888189388    0.363937450175878  0.0000
  O2     O2        0.000272592690269    0.988483526253327    0.505090973885190  0.0000
  O2     O2        0.492441616249848    0.018451508851223    0.511857461584727  0.0000
  O3     O3        0.980330138429288    0.994660471891358    0.264502723706090  0.0000
  O3     O3        0.521521395301545    0.037385124394183    0.272005982642185  0.0000
  O2     O2        0.010178863166000    0.992564402683691    0.746755884033796  0.0000
  O2     O2        0.488078400297569    0.030523283889589    0.754147824005115  0.0000
  O3     O3        0.640139158531377    0.130908791261195    0.105736919558552  0.0000
  O3     O3        0.858587393133005    0.892548349812999    0.105784973947788  0.0000
  O2     O2        0.368308045851914    0.145287869568842    0.890562135310364  0.0000
  O2     O2        0.127664776826875    0.867712773160712    0.879902071044906  0.0000
  O2     O2        0.409893393606902    0.806944257107378    0.894825682686822  0.0000
  O2     O2        0.089013274661246    0.209058756996857    0.894788594771723  0.0000
  O3     O3        0.582288766071407    0.780170929567032    0.101977791509562  0.0000
  O3     O3        0.916463866912610    0.243894444339847    0.096878614837870  0.0000
  O3     O3        0.494019602798277    0.067549521310677    0.004516745651208  0.0000
  O3     O3        0.001979763058583    0.951125681774466    0.995902786398263  0.0000
  O3     O3        0.133236812618510    0.561584623612867    0.308203277221870  0.0000
  O2     O2        0.361276807088044    0.501663513437260    0.304993016344892  0.0000
  O2     O2        0.861091307089938    0.538177060305677    0.690529609601659  0.0000
  O2     O2        0.634674745034629    0.478893264562616    0.692797110766816  0.0000
  O3     O3        0.243330786684185    0.280545022279798    0.323221007315509  0.0000
  O2     O2        0.258753774577184    0.763274354242558    0.308057091544928  0.0000
  O2     O2        0.759608747366435    0.272781487391224    0.679322467115244  0.0000
  O2     O2        0.735996250264749    0.744258737166713    0.681231843117628  0.0000
  O3     O3        0.126269593197900    0.280955314461989    0.128779412184106  0.0000
  O2     O2        0.366562602047099    0.744013505032727    0.126233128620154  0.0000
  O2     O2        0.867854787124832    0.291487789004883    0.864241069369639  0.0000
  O2     O2        0.628881622954436    0.728577694020141    0.868001049179418  0.0000
  O2     O2        0.836439749915308    0.793106608027451    0.866166069306333  0.0000
  O2     O2        0.660459128031424    0.226173809328156    0.865927169357263  0.0000
  O2     O2        0.154977135096081    0.789931185726029    0.122674890003807  0.0000
  O2     O2        0.342208799075320    0.244861496870347    0.132710775057540  0.0000
  O2     O2        0.629086321473617    0.465897108295104    0.037024001854009  0.0000
  O2     O2        0.868925752497170    0.556283245106328    0.035418378660452  0.0000
  O2     O2        0.368237465943391    0.482739771007080    0.955653655864130  0.0000
  O2     O2        0.129023752477489    0.535466833873966    0.956804762197328  0.0000
  O2     O2        0.765325827954642    0.297178720702084    0.048559340029361  0.0000
  O2     O2        0.732810242560718    0.724696089969119    0.050248383448863  0.0000
  O2     O2        0.237120299657477    0.289809603639989    0.954102012381507  0.0000
  O2     O2        0.260061477241494    0.728225129015296    0.942780353074070  0.0000
