data_c00139.vasp
_audit_creation_method             Generated by GULP
_audit_author_name                 Salvador R. G. Balestra
_symmetry_space_group_name_H-M     'P 1             '
_symmetry_Int_Tables_number        1

loop_
_symmetry_equiv_pos_site_id
_symmetry_equiv_pos_as_xyz
_cell_length_a                       17.1035
_cell_length_b                        7.6080
_cell_length_c                       10.3063
_cell_angle_alpha                   90.0664
_cell_angle_beta                    89.9798
_cell_angle_gamma                   89.8743

loop_
_atom_site_label
_atom_site_type_symbol
_atom_site_fract_x
_atom_site_fract_y
_atom_site_fract_z
_atom_site_charge
  Ge     Ge        0.556730000000016    0.000000000000000    0.122129999999970  0.0000
  Ge     Ge        0.148058721290274    0.328739130520417    0.269029988452486  0.0000
  Ge     Ge        0.661991477768715    0.288533561934924    0.702459817900919  0.0000
  Si     Si        0.042563318342893    0.022951358713496    0.352325642964099  0.0000
  Si     Si        0.446220987294721    0.003973813479242    0.367446948153224  0.0000
  Si     Si        0.947588701926190    0.016893243542175    0.612794386754925  0.0000
  Si     Si        0.541778043642671    0.005256608758255    0.624358088531987  0.0000
  Si     Si        0.942172569443587    0.013565904594740    0.096125830336927  0.0000
  Si     Si        0.441491026496199    0.009329146905711    0.880648213612313  0.0000
  Si     Si        0.055889620106825    0.012794768402239    0.859397785703903  0.0000
  Si     Si        0.341962352106397    0.702222144302259    0.263453599235058  0.0000
  Si     Si        0.845477818407704    0.327013856214600    0.695978850008277  0.0000
  Si     Si        0.649268979955874    0.703434466767513    0.707312770631010  0.0000
  Si     Si        0.830028579548402    0.730341493752087    0.702778922879304  0.0000
  Si     Si        0.161552347039661    0.740409794460232    0.259794734639901  0.0000
  Si     Si        0.331132667496094    0.297195653051810    0.268799516911650  0.0000
  Si     Si        0.668991823150377    0.282085134045403    0.007208505324709  0.0000
  Si     Si        0.830640259849635    0.725495047876062    0.006277849278562  0.0000
  Si     Si        0.328879499924578    0.295983113009438    0.963518433656753  0.0000
  Si     Si        0.165179396253089    0.726574886151670    0.956795056663125  0.0000
  Si     Si        0.345886183796064    0.692694655617791    0.961388041687409  0.0000
  Si     Si        0.148407220569155    0.326729456083559    0.960264763650831  0.0000
  Si     Si        0.650701142614370    0.686043953980031    0.007203550548124  0.0000
  Si     Si        0.848762341314492    0.329810891206173    0.000465139561766  0.0000
  O3     O3        0.080536801187083    0.213969215197974    0.358294824221140  0.0000
  O2     O2        0.400237385539261    0.821902601306424    0.345658505387485  0.0000
  O2     O2        0.907931862639819    0.209935091368312    0.616576109276285  0.0000
  O2     O2        0.590866416950420    0.823500316430641    0.623740925316092  0.0000
  O2     O2        0.880120005540941    0.870162174030899    0.622647053800151  0.0000
  O3     O3        0.603097871225424    0.161369098322419    0.605948211261261  0.0000
  O2     O2        0.114708087285047    0.886191546343135    0.340468318350447  0.0000
  O2     O2        0.388703224869517    0.169278152312026    0.346377495103632  0.0000
  O2     O2        0.992089697585944    0.986246670029677    0.479129424403396  0.0000
  O2     O2        0.476137678174695    0.004172918873876    0.514521418744337  0.0000
  O2     O2        0.985089603031819    0.998382151351407    0.231603225908130  0.0000
  O3     O3        0.521359906940996    0.015443001274203    0.276915768103370  0.0000
  O2     O2        0.011145180104412    0.995527305342914    0.725173004122895  0.0000
  O2     O2        0.498179231880028    0.034219930324125    0.760464521959631  0.0000
  O3     O3        0.630051758235140    0.154058170498671    0.108822445265467  0.0000
  O2     O2        0.873227395434526    0.869743730698450    0.093996316273004  0.0000
  O2     O2        0.372178236954303    0.153868047878888    0.874682022869743  0.0000
  O2     O2        0.123615013234262    0.864925721469009    0.862413497147199  0.0000
  O2     O2        0.404730851807330    0.812863866183165    0.878577771505053  0.0000
  O2     O2        0.092845207161681    0.207473116019470    0.870124810199621  0.0000
  O3     O3        0.592695476664644    0.789842797575413    0.099167287176405  0.0000
  O2     O2        0.907974678142029    0.210322406331407    0.082342792073359  0.0000
  O3     O3        0.485365206974865    0.051367880968944    0.012901178802931  0.0000
  O2     O2        0.999356374546552    0.969232886479566    0.978332864830048  0.0000
  O3     O3        0.130229872637437    0.548910399793936    0.292832531565078  0.0000
  O2     O2        0.358082758915224    0.498150146703440    0.294399486447191  0.0000
  O2     O2        0.859690095319504    0.533857677474650    0.668795751905246  0.0000
  O3     O3        0.630861562408986    0.502262819290316    0.682852801393232  0.0000
  O3     O3        0.242539275293759    0.276149319431927    0.314364657191511  0.0000
  O2     O2        0.252934234280457    0.751374376330873    0.298603008368316  0.0000
  O3     O3        0.758662228530195    0.275617496753982    0.654891562363966  0.0000
  O2     O2        0.738683252135475    0.747609964246599    0.665909385549032  0.0000
  O3     O3        0.133404833005831    0.274797973099273    0.108119772804003  0.0000
  O2     O2        0.358775207248164    0.740731721589578    0.112262809498388  0.0000
  O2     O2        0.858575314679226    0.287918735821372    0.848339240642880  0.0000
  O2     O2        0.637278329450806    0.750675887721992    0.859380942405370  0.0000
  O2     O2        0.839864106861132    0.772317827755554    0.854903702695314  0.0000
  O3     O3        0.655679861114971    0.216225437158631    0.860916230965857  0.0000
  O2     O2        0.153352329362069    0.780573297224075    0.106599399130437  0.0000
  O2     O2        0.335933535659726    0.252086160514338    0.115943311042527  0.0000
  O2     O2        0.633447424986395    0.478994405138413    0.016948574358198  0.0000
  O2     O2        0.868123578449078    0.533049451640475    0.031598241833704  0.0000
  O2     O2        0.365736011240567    0.488422753373852    0.935858856085204  0.0000
  O2     O2        0.129342446613456    0.532176852941403    0.935303708894410  0.0000
  O2     O2        0.760676036565104    0.287474409386371    0.041330943684051  0.0000
  O2     O2        0.740112210414377    0.726216931850286    0.047192439240449  0.0000
  O2     O2        0.238468886282382    0.292255318802420    0.923331431035020  0.0000
  O2     O2        0.256658015521063    0.729725251752464    0.921367177193640  0.0000
