data_c00172.vasp
_audit_creation_method             Generated by GULP
_audit_author_name                 Salvador R. G. Balestra
_symmetry_space_group_name_H-M     'P 1             '
_symmetry_Int_Tables_number        1

loop_
_symmetry_equiv_pos_site_id
_symmetry_equiv_pos_as_xyz
_cell_length_a                       16.9928
_cell_length_b                        7.5690
_cell_length_c                       10.3324
_cell_angle_alpha                   88.5717
_cell_angle_beta                    89.8052
_cell_angle_gamma                   90.9487

loop_
_atom_site_label
_atom_site_type_symbol
_atom_site_fract_x
_atom_site_fract_y
_atom_site_fract_z
_atom_site_charge
  Ge     Ge        0.556730000000016    0.000000000000000    0.122129999999970  0.0000
  Ge     Ge        0.853121782133122    0.363716198610306    0.698285138794617  0.0000
  Ge     Ge        0.646328232837828    0.673780901488691    0.022614096499470  0.0000
  Si     Si        0.048340891403585    0.025010445123869    0.359779355167353  0.0000
  Si     Si        0.450875319149439    0.027608951761710    0.370955992463421  0.0000
  Si     Si        0.954150251529220    0.055722067020136    0.619249811660686  0.0000
  Si     Si        0.548269151393578    0.031731595922161    0.628255259441375  0.0000
  Si     Si        0.943051625010154    0.025625506306775    0.108223964003157  0.0000
  Si     Si        0.445061671325967    0.044151734316540    0.880808270114108  0.0000
  Si     Si        0.056853695700915    0.038135926813263    0.871184691820003  0.0000
  Si     Si        0.153520366085089    0.337300563627004    0.274344666941958  0.0000
  Si     Si        0.346791335450896    0.721380894652454    0.272160763712388  0.0000
  Si     Si        0.650653267030415    0.722148485898486    0.716452274015895  0.0000
  Si     Si        0.830610784356105    0.772526081990037    0.719174418183433  0.0000
  Si     Si        0.668534261110328    0.316266655683435    0.697939897232187  0.0000
  Si     Si        0.165225830972600    0.744251638189895    0.272322027940187  0.0000
  Si     Si        0.334378728918527    0.313886474066269    0.272016430053844  0.0000
  Si     Si        0.673035587798863    0.275111056474292    0.999702202851972  0.0000
  Si     Si        0.829529834638012    0.736264193677172    0.023296966975012  0.0000
  Si     Si        0.332947297193089    0.322967658760507    0.969903223765479  0.0000
  Si     Si        0.166985243833116    0.752421125662960    0.970717286709881  0.0000
  Si     Si        0.349009674725598    0.723546015570397    0.971336091513739  0.0000
  Si     Si        0.151535564173596    0.351678889392315    0.972550625772652  0.0000
  Si     Si        0.855083287814690    0.344798385175808    0.003815785166793  0.0000
  O2     O2        0.093598655741984    0.214700108019728    0.358209874731179  0.0000
  O2     O2        0.407383158271100    0.837873953181674    0.353515527376218  0.0000
  O3     O3        0.921307723438537    0.252026044998229    0.608415433557377  0.0000
  O2     O2        0.591053858680716    0.843037746700084    0.633085575721108  0.0000
  O2     O2        0.877255748808293    0.932193343165691    0.647235630313993  0.0000
  O2     O2        0.613482527862894    0.189287134089501    0.612162951573251  0.0000
  O2     O2        0.113058085894656    0.871355545661460    0.357788097643774  0.0000
  O2     O2        0.387179886557583    0.181977142693381    0.355787254503689  0.0000
  O2     O2        0.996778390880114    0.001826260814753    0.488275879660713  0.0000
  O2     O2        0.486917932595401    0.035016767313243    0.512477858141468  0.0000
  O2     O2        0.990535420959854    0.007260774177149    0.239647731005643  0.0000
  O3     O3        0.522336162661417    0.052797438523605    0.271793773546383  0.0000
  O2     O2        0.017504363459942    0.029745164953212    0.732443493798499  0.0000
  O2     O2        0.498468822208072    0.067128447747842    0.755871493070279  0.0000
  O3     O3        0.645107368760930    0.109534318431384    0.084804401177648  0.0000
  O2     O2        0.873750967232475    0.878333249687585    0.111314069228484  0.0000
  O2     O2        0.375943508768525    0.188612132852114    0.877460100882037  0.0000
  O2     O2        0.125586147989291    0.894145097325766    0.877839124622739  0.0000
  O2     O2        0.407567413967111    0.845660313620182    0.885201628444778  0.0000
  O2     O2        0.092846046628864    0.234771655808025    0.888081239132991  0.0000
  O1     O1        0.578763691510057    0.781509384224637    0.113383735712105  0.0000
  O2     O2        0.907702619180466    0.221787873439182    0.097420820870673  0.0000
  O3     O3        0.493366804416184    0.082792127173879    0.008001894156372  0.0000
  O2     O2        0.996391359976211    0.985622969022874    0.984718134603966  0.0000
  O2     O2        0.138530859310659    0.542040708144667    0.303064305290753  0.0000
  O2     O2        0.361482048698188    0.514569980019964    0.300510391063319  0.0000
  O3     O3        0.869066003404401    0.588737044750719    0.683642701781004  0.0000
  O2     O2        0.635285979964713    0.515330102632365    0.688912895731800  0.0000
  O2     O2        0.242879504178838    0.287753855906556    0.310868726514529  0.0000
  O2     O2        0.257216482564652    0.769368597018589    0.307146456999261  0.0000
  O3     O3        0.757925470650383    0.316964912045583    0.649701057799427  0.0000
  O2     O2        0.739865451549037    0.773758027133562    0.673110087559449  0.0000
  O2     O2        0.138116743545857    0.301195561196616    0.123432647395037  0.0000
  O2     O2        0.365134414471290    0.767134906987434    0.121418173819621  0.0000
  O3     O3        0.871660847886737    0.297263581140362    0.856557603968422  0.0000
  O3     O3        0.636356938058255    0.757638557275677    0.865995993132944  0.0000
  O2     O2        0.829815776809405    0.800738651044776    0.873179456505783  0.0000
  O2     O2        0.666736189961510    0.242286813075001    0.845944931699935  0.0000
  O2     O2        0.153598105152684    0.795089145270699    0.121237134774291  0.0000
  O2     O2        0.344698354849954    0.271342696141970    0.120986761098612  0.0000
  O3     O3        0.625140514315492    0.450646204733873    0.032135370600431  0.0000
  O2     O2        0.875330572666140    0.549486463530180    0.032432280629238  0.0000
  O2     O2        0.367819311378255    0.520505314120032    0.943630369839679  0.0000
  O2     O2        0.132658172220934    0.556685721625483    0.943733342661287  0.0000
  O2     O2        0.763314753643933    0.316055644226710    0.034346788419895  0.0000
  O3     O3        0.741458798012086    0.715477370865305    0.074262936489526  0.0000
  O2     O2        0.241199929368981    0.314485628997040    0.934278854540340  0.0000
  O2     O2        0.259126041489885    0.763302991599851    0.937042907509864  0.0000
