data_c00142.vasp
_audit_creation_method             Generated by GULP
_audit_author_name                 Salvador R. G. Balestra
_symmetry_space_group_name_H-M     'P 1             '
_symmetry_Int_Tables_number        1

loop_
_symmetry_equiv_pos_site_id
_symmetry_equiv_pos_as_xyz
_cell_length_a                       17.0518
_cell_length_b                        7.5947
_cell_length_c                       10.2731
_cell_angle_alpha                   91.1280
_cell_angle_beta                    90.6141
_cell_angle_gamma                   89.3264

loop_
_atom_site_label
_atom_site_type_symbol
_atom_site_fract_x
_atom_site_fract_y
_atom_site_fract_z
_atom_site_charge
  Ge     Ge        0.556730000000016    0.000000000000000    0.122129999999970  0.0000
  Ge     Ge        0.163418958827305    0.255359835713593    0.268850175572042  0.0000
  Ge     Ge        0.648122656613060    0.323562578651981    0.019139741870137  0.0000
  Si     Si        0.045511562554958    0.974677500088062    0.353377735854265  0.0000
  Si     Si        0.451010179766241    0.977986396220757    0.367258222650060  0.0000
  Si     Si        0.946345138986409    0.953882406936206    0.608484376347746  0.0000
  Si     Si        0.547275172994433    0.977055683712456    0.627323188011151  0.0000
  Si     Si        0.946078257948982    0.979029147587774    0.092747434103150  0.0000
  Si     Si        0.443355978191858    0.963834442498581    0.878485711351926  0.0000
  Si     Si        0.056490840972669    0.965624739664164    0.853501875035978  0.0000
  Si     Si        0.334070489314695    0.691567352607878    0.265046291313118  0.0000
  Si     Si        0.829659756493687    0.248921474628054    0.708149231268019  0.0000
  Si     Si        0.665573226625369    0.691832108274410    0.701102908026183  0.0000
  Si     Si        0.845936723724874    0.651193444690009    0.698659024929018  0.0000
  Si     Si        0.650484844234889    0.286154472683635    0.709626541978350  0.0000
  Si     Si        0.152834442978228    0.669522616875202    0.265876342184445  0.0000
  Si     Si        0.347470780417845    0.285164125874926    0.268352773084386  0.0000
  Si     Si        0.853200839220630    0.660149055014410    0.001011217371507  0.0000
  Si     Si        0.346071082729926    0.282816417038169    0.963216583111633  0.0000
  Si     Si        0.151010870939240    0.654060585185289    0.962513719777412  0.0000
  Si     Si        0.331961719437334    0.681151645994631    0.960755414384788  0.0000
  Si     Si        0.164916467091355    0.250659159847936    0.959432969261726  0.0000
  Si     Si        0.672233416233679    0.723737151669587    0.004258693117568  0.0000
  Si     Si        0.831318730086682    0.268355923061365    0.014159108658670  0.0000
  O3     O3        0.106870599630419    0.131372022802532    0.367998152610175  0.0000
  O2     O2        0.385593468769471    0.828069442857816    0.348384142531781  0.0000
  O2     O2        0.881646136223613    0.106921310817252    0.630247737207817  0.0000
  O2     O2        0.612822418692497    0.821473703308153    0.613032313717049  0.0000
  O2     O2        0.904415537340681    0.764497591499366    0.612862597623277  0.0000
  O2     O2        0.589970244151170    0.165725673579062    0.626571551135857  0.0000
  O2     O2        0.095574631992735    0.793345496053772    0.350603663671154  0.0000
  O2     O2        0.412666573504457    0.170705842832535    0.343694911286712  0.0000
  O2     O2        0.982880618728484    0.973425725648802    0.467325770525281  0.0000
  O2     O2        0.483920092747218    0.968198425180733    0.512694675770256  0.0000
  O2     O2        0.999383891915220    0.003300459155915    0.218794465285124  0.0000
  O3     O3        0.523858335453409    0.948472322852055    0.273257152280260  0.0000
  O2     O2        0.016813016114752    0.969082745826101    0.712399396538818  0.0000
  O2     O2        0.500259294525387    0.946206201129752    0.758168020802461  0.0000
  O1     O1        0.581259727079087    0.216279492616937    0.109761290636123  0.0000
  O2     O2        0.910149577526818    0.783242968239229    0.087268050287476  0.0000
  O2     O2        0.404596415982777    0.159593424467417    0.880182390414679  0.0000
  O2     O2        0.093790833932355    0.771715923581904    0.874275395854504  0.0000
  O2     O2        0.375585977522929    0.816383789937274    0.869386866237889  0.0000
  O2     O2        0.122699751203584    0.115554971667880    0.859956489182999  0.0000
  O3     O3        0.643478786010137    0.886836636694647    0.088910706021511  0.0000
  O2     O2        0.877211103735155    0.125012422378415    0.099106132472851  0.0000
  O3     O3        0.489284299824298    0.925522242101898    0.010017789515841  0.0000
  O2     O2        0.994269494822321    0.015421134554742    0.963577751403539  0.0000
  O3     O3        0.134684826122288    0.470704593236455    0.295018924744328  0.0000
  O2     O2        0.361914467707108    0.492674183447277    0.295766655067340  0.0000
  O2     O2        0.861525241408312    0.443094569821906    0.676043192222592  0.0000
  O2     O2        0.634259526244474    0.492842295221908    0.683708415569226  0.0000
  O3     O3        0.261427164417276    0.233867313743263    0.311022904413517  0.0000
  O2     O2        0.243035616357004    0.715257585894667    0.302825313515115  0.0000
  O2     O2        0.738772996537855    0.235436919577191    0.664238235759846  0.0000
  O2     O2        0.756388439491870    0.698646178970628    0.658720688882165  0.0000
  O3     O3        0.153072512855298    0.193884501871861    0.106936541270937  0.0000
  O2     O2        0.343719114611141    0.732029607120012    0.112797246611983  0.0000
  O2     O2        0.832672966259128    0.212560302778737    0.861625175746998  0.0000
  O2     O2        0.660161638454257    0.757856417032428    0.850377031733287  0.0000
  O2     O2        0.863891499923404    0.702975422284517    0.848989428185674  0.0000
  O3     O3        0.637765919538186    0.248174057375885    0.859848336167598  0.0000
  O2     O2        0.138438226212807    0.708238568137697    0.113098914205114  0.0000
  O2     O2        0.359182522832901    0.241930006804950    0.115158908346972  0.0000
  O3     O3        0.627592109021489    0.545201986759571    0.036600348419661  0.0000
  O2     O2        0.874411702787390    0.457428755958164    0.030372389031257  0.0000
  O2     O2        0.366433329078574    0.484726364107264    0.934274748136472  0.0000
  O2     O2        0.130910226059350    0.448674284483428    0.940299390639818  0.0000
  O3     O3        0.744043866824826    0.280626636274841    0.065877736134580  0.0000
  O2     O2        0.763532743392783    0.693774189024349    0.038356494223337  0.0000
  O2     O2        0.256596680675801    0.244603782800806    0.924460062700368  0.0000
  O2     O2        0.240387663237702    0.688474355910788    0.923249086333375  0.0000
