data_c00100.vasp
_audit_creation_method             Generated by GULP
_audit_author_name                 Salvador R. G. Balestra
_symmetry_space_group_name_H-M     'P 1             '
_symmetry_Int_Tables_number        1

loop_
_symmetry_equiv_pos_site_id
_symmetry_equiv_pos_as_xyz
_cell_length_a                       17.2882
_cell_length_b                        7.6480
_cell_length_c                       10.1383
_cell_angle_alpha                   90.2883
_cell_angle_beta                    90.0951
_cell_angle_gamma                   90.4537

loop_
_atom_site_label
_atom_site_type_symbol
_atom_site_fract_x
_atom_site_fract_y
_atom_site_fract_z
_atom_site_charge
  Ge     Ge        0.052090000000021    0.000000000000000    0.372269999999958  0.0000
  Ge     Ge        0.661707762157247    0.698859388825167    0.720507718112668  0.0000
  Ge     Ge        0.345440240116921    0.326436376145421    0.972621723947486  0.0000
  Si     Si        0.450032945462111    0.015557745743049    0.387253489769151  0.0000
  Si     Si        0.950554862458240    0.996925182376169    0.634181936687759  0.0000
  Si     Si        0.549677327214824    0.990333741166694    0.643711320788092  0.0000
  Si     Si        0.556150624360291    0.005586224110645    0.140434258622441  0.0000
  Si     Si        0.943008812564856    0.009148902211754    0.114188108801688  0.0000
  Si     Si        0.445357104872414    0.016542898843662    0.895098507882967  0.0000
  Si     Si        0.055635603336829    0.003896973409982    0.878090068578988  0.0000
  Si     Si        0.168865233642525    0.294306437950735    0.292265626889574  0.0000
  Si     Si        0.339059470303943    0.718735722340586    0.291687804893971  0.0000
  Si     Si        0.839686883589967    0.292171042258003    0.736002792320890  0.0000
  Si     Si        0.842713825164400    0.694499763408035    0.727581660991336  0.0000
  Si     Si        0.660981427935083    0.288225873471339    0.731218210273448  0.0000
  Si     Si        0.160680064839069    0.698301086347229    0.298527773822876  0.0000
  Si     Si        0.347177693085079    0.315959657586817    0.287510910230193  0.0000
  Si     Si        0.658634281483956    0.307351279467551    0.038898897152901  0.0000
  Si     Si        0.837929225116736    0.702489232429350    0.038753421752375  0.0000
  Si     Si        0.154533746121043    0.702343423761527    0.992838387123139  0.0000
  Si     Si        0.333870972875014    0.728826430398474    0.982708772061434  0.0000
  Si     Si        0.163151595117255    0.301137888973507    0.984439427954515  0.0000
  Si     Si        0.659918910238377    0.709258453504070    0.034367821186076  0.0000
  Si     Si        0.836776940263507    0.306878267857485    0.044825709026067  0.0000
  O3     O3        0.117358110814985    0.172019152517346    0.382482961593027  0.0000
  O2     O2        0.391962996456108    0.850434470719209    0.375914647434518  0.0000
  O2     O2        0.894494213158330    0.160635969505560    0.658576760693467  0.0000
  O3     O3        0.600818711393163    0.819664524982816    0.623433910896231  0.0000
  O2     O2        0.904527771471706    0.814830434684079    0.652697075071378  0.0000
  O2     O2        0.608553412662580    0.154667187533093    0.648193998862027  0.0000
  O3     O3        0.104531324288097    0.809557038448278    0.388710284924422  0.0000
  O2     O2        0.404094692236910    0.196267676831776    0.372677501486498  0.0000
  O3     O3        0.979696661713947    0.009498853945068    0.486208378549727  0.0000
  O2     O2        0.486436607983682    0.016204312949964    0.531653135607649  0.0000
  O3     O3        0.008830395984464    0.010890155036414    0.220403900483747  0.0000
  O2     O2        0.520180286843448    0.000315090053444    0.285048769583442  0.0000
  O2     O2        0.026421077053644    0.003085999592582    0.727413469151533  0.0000
  O2     O2        0.503913127671252    0.969470047360473    0.780303149758849  0.0000
  O2     O2        0.605679390794540    0.184187689048471    0.128555238584935  0.0000
  O2     O2        0.890933196089337    0.833385081664587    0.123668158872594  0.0000
  O3     O3        0.408296368870597    0.205756423043444    0.878088815005222  0.0000
  O2     O2        0.100466199467466    0.823598977709616    0.904574434470819  0.0000
  O2     O2        0.374126413451396    0.878642428128986    0.896942682080206  0.0000
  O2     O2        0.110655838629853    0.171954239732795    0.897314611444958  0.0000
  O2     O2        0.609306993684896    0.835190411402390    0.125792124583447  0.0000
  O2     O2        0.887722811734480    0.177511527100918    0.132527522705310  0.0000
  O2     O2        0.488154912296430    0.002614119855813    0.034552515891521  0.0000
  O2     O2        0.980963791988662    0.017753773426970    0.969783460992415  0.0000
  O2     O2        0.143311184607601    0.493725779716686    0.316920175545662  0.0000
  O2     O2        0.366188739465338    0.520070903222405    0.316380730477492  0.0000
  O2     O2        0.863506800029958    0.491191506040848    0.701478776097301  0.0000
  O3     O3        0.636763309342702    0.482776913746445    0.698078611171059  0.0000
  O2     O2        0.259018152957576    0.273428761939948    0.328891246751156  0.0000
  O2     O2        0.249978200701820    0.740552068664989    0.334783550228287  0.0000
  O2     O2        0.750794192984226    0.258097629736035    0.693615698850730  0.0000
  O3     O3        0.757092114994147    0.730937609670785    0.676069472155692  0.0000
  O2     O2        0.158365678958831    0.244656246038554    0.137663599657091  0.0000
  O2     O2        0.347296442360565    0.764249569628911    0.137947739002550  0.0000
  O2     O2        0.847555835165646    0.259529805747104    0.891535327572061  0.0000
  O3     O3        0.650316086924089    0.761182697698165    0.883226582016274  0.0000
  O2     O2        0.846196872632729    0.737139568550167    0.883284608834287  0.0000
  O2     O2        0.648627207028047    0.250815326066494    0.886670337765580  0.0000
  O2     O2        0.144374797934997    0.753177939570020    0.146397914679757  0.0000
  O3     O3        0.359629254985742    0.271901283279224    0.135365501131973  0.0000
  O2     O2        0.632488759825613    0.508277630704866    0.055848316625700  0.0000
  O2     O2        0.864133195440178    0.505686105947698    0.073104355728067  0.0000
  O3     O3        0.368107157326325    0.542552627799796    0.944753326941814  0.0000
  O2     O2        0.131997489278318    0.499432458435252    0.968754323960429  0.0000
  O2     O2        0.747150904276486    0.284750870818361    0.084081442331170  0.0000
  O2     O2        0.749038662711904    0.730071641859957    0.078945343357568  0.0000
  O3     O3        0.249889448272093    0.288676996363077    0.932863806805667  0.0000
  O2     O2        0.242925908033204    0.732147669435278    0.949756936316156  0.0000
