data_c00138.vasp
_audit_creation_method             Generated by GULP
_audit_author_name                 Salvador R. G. Balestra
_symmetry_space_group_name_H-M     'P 1             '
_symmetry_Int_Tables_number        1

loop_
_symmetry_equiv_pos_site_id
_symmetry_equiv_pos_as_xyz
_cell_length_a                       17.1020
_cell_length_b                        7.6022
_cell_length_c                       10.2942
_cell_angle_alpha                   91.3287
_cell_angle_beta                    90.7829
_cell_angle_gamma                   89.2439

loop_
_atom_site_label
_atom_site_type_symbol
_atom_site_fract_x
_atom_site_fract_y
_atom_site_fract_z
_atom_site_charge
  Ge     Ge        0.556730000000016    0.000000000000000    0.122129999999970  0.0000
  Ge     Ge        0.160978175033669    0.271942027749942    0.276225770208407  0.0000
  Ge     Ge        0.845075983808167    0.644125063730242    0.698650415243424  0.0000
  Si     Si        0.043610208328029    0.990239607121676    0.359793652672523  0.0000
  Si     Si        0.449891284675500    0.991517114069086    0.368451252626854  0.0000
  Si     Si        0.945375403452043    0.950307608136159    0.612878241535000  0.0000
  Si     Si        0.541998484516553    0.977799466194829    0.632555886104659  0.0000
  Si     Si        0.940961079745781    0.979366491983780    0.102356322013379  0.0000
  Si     Si        0.438117187902342    0.971306735301885    0.882931488309171  0.0000
  Si     Si        0.051095987878089    0.974426332397391    0.863659815460406  0.0000
  Si     Si        0.332576462125839    0.702869342391871    0.268016956661548  0.0000
  Si     Si        0.826074526440416    0.236525359508124    0.712805201548597  0.0000
  Si     Si        0.660861174481646    0.689950903293826    0.703936582079260  0.0000
  Si     Si        0.646609409207011    0.285024763620216    0.716696293096519  0.0000
  Si     Si        0.152156198615399    0.686014234715867    0.272651512302968  0.0000
  Si     Si        0.344413297846491    0.296669426165322    0.273514737862708  0.0000
  Si     Si        0.647748374149135    0.315939384099911    0.018827817574115  0.0000
  Si     Si        0.851640358918988    0.659030958721660    0.007287477425826  0.0000
  Si     Si        0.340559298779278    0.289642528872077    0.968445313742394  0.0000
  Si     Si        0.147592452395589    0.664837568044167    0.969580591379175  0.0000
  Si     Si        0.327713505745325    0.687465375418600    0.964141671274548  0.0000
  Si     Si        0.159843125020689    0.261407608275867    0.967760127070429  0.0000
  Si     Si        0.670294140900965    0.712587426132722    0.006528396980003  0.0000
  Si     Si        0.827489157376582    0.265209453134456    0.018230327911638  0.0000
  O3     O3        0.102577648658028    0.150700605128247    0.372832052152869  0.0000
  O2     O2        0.386279362294421    0.839246631766056    0.346480740561690  0.0000
  O2     O2        0.871008003115624    0.078987785453465    0.638724504823831  0.0000
  O2     O2        0.604865181565483    0.817494376412289    0.620182967303829  0.0000
  O3     O3        0.911106913733895    0.756204567325727    0.607979264878036  0.0000
  O2     O2        0.586483077693166    0.163696045507505    0.635664358842083  0.0000
  O2     O2        0.095959158875064    0.812184860382395    0.357156247825922  0.0000
  O2     O2        0.409284458660983    0.182592925769363    0.349201339535098  0.0000
  O2     O2        0.983764251042585    0.992223224675561    0.476946113998785  0.0000
  O2     O2        0.481386723557153    0.975796478724970    0.514234287995169  0.0000
  O2     O2        0.993699469800954    0.009051979566139    0.228279431586320  0.0000
  O3     O3        0.523353467568590    0.970753298735558    0.275857233232132  0.0000
  O2     O2        0.011721620816743    0.977819954039621    0.722831982755058  0.0000
  O2     O2        0.493197296579925    0.951872876396059    0.761254589555469  0.0000
  O3     O3        0.587875633516466    0.213896344976844    0.104964398606013  0.0000
  O2     O2        0.907646274949603    0.781291670184300    0.097595415101199  0.0000
  O2     O2        0.397670500783367    0.164719983736155    0.884687965324743  0.0000
  O2     O2        0.089837338654076    0.781725752706626    0.882422392059687  0.0000
  O2     O2        0.371820172027510    0.821527356965046    0.873925553889504  0.0000
  O2     O2        0.115769269543059    0.126808043972669    0.870476636824268  0.0000
  O3     O3        0.636165090272664    0.861970749790113    0.098515838845654  0.0000
  O2     O2        0.870184202061140    0.121849911675755    0.107091076935187  0.0000
  O3     O3        0.485247440140433    0.937704098930079    0.014071989437971  0.0000
  O2     O2        0.988806950056988    0.018985542652693    0.974044627225539  0.0000
  O3     O3        0.133807282209755    0.488042707150305    0.303193247877114  0.0000
  O2     O2        0.359296896304526    0.504010235162722    0.300181394614675  0.0000
  O3     O3        0.860013884840334    0.421596407203109    0.672723051740876  0.0000
  O2     O2        0.631145256875049    0.489353935016220    0.686040037235165  0.0000
  O3     O3        0.258623440898662    0.247449783838324    0.317548294306899  0.0000
  O2     O2        0.242366976723035    0.731099084128543    0.308252882336141  0.0000
  O2     O2        0.734241604260823    0.230360862281267    0.674581724040851  0.0000
  O3     O3        0.749565872505597    0.698559662192193    0.658499049190245  0.0000
  O3     O3        0.148915540896274    0.207582086426267    0.115452364758047  0.0000
  O2     O2        0.340306006410478    0.738727048635104    0.115488375587577  0.0000
  O2     O2        0.834065344400895    0.210719739619457    0.867107665533980  0.0000
  O2     O2        0.657145138169926    0.754386098113518    0.854615356988355  0.0000
  O3     O3        0.867654333305009    0.698282105137630    0.858464525697470  0.0000
  O2     O2        0.634607863822966    0.251521236469792    0.869184983769736  0.0000
  O2     O2        0.136826804690978    0.721330702751359    0.119953625939550  0.0000
  O2     O2        0.354307328414106    0.252017380194366    0.120385377388099  0.0000
  O2     O2        0.631279542860451    0.524367180982536    0.034478817359130  0.0000
  O2     O2        0.868376945332443    0.454868224145391    0.040191468679132  0.0000
  O2     O2        0.360881929461488    0.490356023519796    0.937251092830750  0.0000
  O2     O2        0.126613589318122    0.459900642219617    0.948669703106581  0.0000
  O2     O2        0.737360254997950    0.273655067531861    0.060456425315782  0.0000
  O2     O2        0.762021089986608    0.702799250348142    0.037821652250785  0.0000
  O2     O2        0.250925839066510    0.252016838688515    0.931293643507280  0.0000
  O2     O2        0.236223515112602    0.697256026663758    0.927441104725710  0.0000
