data_c00132.vasp
_audit_creation_method             Generated by GULP
_audit_author_name                 Salvador R. G. Balestra
_symmetry_space_group_name_H-M     'P 1             '
_symmetry_Int_Tables_number        1

loop_
_symmetry_equiv_pos_site_id
_symmetry_equiv_pos_as_xyz
_cell_length_a                       16.9583
_cell_length_b                        7.5675
_cell_length_c                       10.4366
_cell_angle_alpha                   90.0648
_cell_angle_beta                    89.3481
_cell_angle_gamma                   89.9558

loop_
_atom_site_label
_atom_site_type_symbol
_atom_site_fract_x
_atom_site_fract_y
_atom_site_fract_z
_atom_site_charge
  Ge     Ge        0.556730000000016    0.000000000000000    0.122129999999970  0.0000
  Ge     Ge        0.061819707290898    0.977834382263536    0.877758933033479  0.0000
  Ge     Ge        0.332522835275096    0.714210130360982    0.292479895967150  0.0000
  Si     Si        0.046399841333723    0.976191736820142    0.365955056758619  0.0000
  Si     Si        0.452450109565967    0.994392296043245    0.382347022005715  0.0000
  Si     Si        0.952680718600100    0.981369940776154    0.628358231495184  0.0000
  Si     Si        0.551796550791056    0.002504999676193    0.635625468636941  0.0000
  Si     Si        0.946416813325599    0.991834792349469    0.115838256323273  0.0000
  Si     Si        0.447351524485228    0.991464613931928    0.881829495657054  0.0000
  Si     Si        0.167821237188641    0.257101610967355    0.279800973642734  0.0000
  Si     Si        0.834851441246551    0.268810970029666    0.725886504907789  0.0000
  Si     Si        0.669280554890753    0.715745686569095    0.730015667429273  0.0000
  Si     Si        0.850548052792696    0.673901828739766    0.720745793645480  0.0000
  Si     Si        0.653566602437615    0.308067685192390    0.732932348861662  0.0000
  Si     Si        0.148094186735066    0.665142827165268    0.281581894447511  0.0000
  Si     Si        0.350430333100711    0.300695470005353    0.291148318906409  0.0000
  Si     Si        0.651225236117992    0.322207159014698    0.030051155223867  0.0000
  Si     Si        0.856569003711015    0.670642364322086    0.018714968791220  0.0000
  Si     Si        0.358643177595132    0.310496473090712    0.993681274267632  0.0000
  Si     Si        0.153299910013863    0.656220093975674    0.982890221737296  0.0000
  Si     Si        0.335253108780245    0.712070890982267    0.987868566081887  0.0000
  Si     Si        0.176842432471194    0.256455876280736    0.982703457267282  0.0000
  Si     Si        0.674938093218233    0.722068708517520    0.027385524119303  0.0000
  Si     Si        0.833377357422186    0.273466617728176    0.024891313897924  0.0000
  O2     O2        0.117024754301789    0.119923621429458    0.363715685948437  0.0000
  O3     O3        0.385325690677714    0.846821552826208    0.393459321850557  0.0000
  O2     O2        0.885801016294721    0.132068197203605    0.642702767556109  0.0000
  O2     O2        0.616507833818957    0.846967063300493    0.646394997005320  0.0000
  O2     O2        0.910967172559640    0.789666178715432    0.636771782666637  0.0000
  O2     O2        0.593886845130879    0.192430488192280    0.649510348683187  0.0000
  O2     O2        0.082982471931903    0.778927518601771    0.359651506263563  0.0000
  O2     O2        0.408396617088391    0.183508375525433    0.376620281638385  0.0000
  O2     O2        0.995130347457988    0.000298960607669    0.492683170754582  0.0000
  O2     O2        0.513771110267155    0.992704688761153    0.496990764790877  0.0000
  O2     O2        0.987903905436907    0.011331621199409    0.250265372195019  0.0000
  O3     O3        0.501220588476536    0.954093730535134    0.253594990441511  0.0000
  O3     O3        0.019864148592176    0.004264716283191    0.732107673240904  0.0000
  O2     O2        0.481810160734302    0.980392475195472    0.738880663825991  0.0000
  O3     O3        0.590986837376072    0.215312613966810    0.117960759879937  0.0000
  O2     O2        0.917387504457005    0.789484614506514    0.097566499587856  0.0000
  O2     O2        0.419075894002805    0.192902582127697    0.910416068875008  0.0000
  O3     O3        0.093998569023586    0.762703065659564    0.895773917575494  0.0000
  O2     O2        0.375209981868954    0.852472119958134    0.892239154354650  0.0000
  O3     O3        0.142951202055035    0.116151495143927    0.886649985741900  0.0000
  O3     O3        0.638535199236724    0.862393452092491    0.121850220994464  0.0000
  O2     O2        0.872652761570791    0.127107244643524    0.113967800416039  0.0000
  O3     O3        0.510408185045539    0.934398455918183    0.984696322300357  0.0000
  O3     O3        0.002220628253631    0.049871143926166    0.000311840724192  0.0000
  O2     O2        0.136415037805317    0.455773875590610    0.305453666640502  0.0000
  O3     O3        0.364732949182418    0.502203705033801    0.321690407532011  0.0000
  O2     O2        0.864191404659005    0.466845767538316    0.692965731859860  0.0000
  O2     O2        0.639658827510984    0.515497417297923    0.706765653362289  0.0000
  O2     O2        0.259507958234751    0.245438122122751    0.319082522085665  0.0000
  O3     O3        0.233384251981307    0.723842141680048    0.328201750315318  0.0000
  O2     O2        0.742551259226405    0.253147454213664    0.693053196952461  0.0000
  O2     O2        0.761061481909443    0.728972438067118    0.687980297645902  0.0000
  O2     O2        0.160775675711029    0.202802533454176    0.130973590848031  0.0000
  O3     O3        0.345643527652889    0.773242673577295    0.133838599160668  0.0000
  O2     O2        0.845710858570515    0.224040074044420    0.875451131869674  0.0000
  O2     O2        0.662036977611641    0.772155742570464    0.878222072390219  0.0000
  O2     O2        0.870532038207337    0.714426259508719    0.868718917063217  0.0000
  O2     O2        0.636819024450549    0.265580562508442    0.882149112187841  0.0000
  O2     O2        0.137839202388093    0.708795052313008    0.131314021450429  0.0000
  O2     O2        0.372620460534581    0.261215416591516    0.142188405818945  0.0000
  O2     O2        0.636062553918233    0.529533160583744    0.050994695365990  0.0000
  O2     O2        0.873183239439718    0.465100224703532    0.048590735947145  0.0000
  O2     O2        0.375321586649968    0.518030828421881    0.971199128545931  0.0000
  O2     O2        0.138421217543255    0.449073196575122    0.959677534066369  0.0000
  O2     O2        0.741582015282093    0.277023984300254    0.062847980321054  0.0000
  O2     O2        0.767524296586272    0.715746224113979    0.057340558369501  0.0000
  O2     O2        0.270057187993547    0.265882331273607    0.955365903974777  0.0000
  O2     O2        0.243865016870352    0.703546507711195    0.950145093141842  0.0000
