data_c00173.vasp
_audit_creation_method             Generated by GULP
_audit_author_name                 Salvador R. G. Balestra
_symmetry_space_group_name_H-M     'P 1             '
_symmetry_Int_Tables_number        1

loop_
_symmetry_equiv_pos_site_id
_symmetry_equiv_pos_as_xyz
_cell_length_a                       17.0348
_cell_length_b                        7.5880
_cell_length_c                       10.3102
_cell_angle_alpha                   89.6724
_cell_angle_beta                    90.5559
_cell_angle_gamma                   90.9157

loop_
_atom_site_label
_atom_site_type_symbol
_atom_site_fract_x
_atom_site_fract_y
_atom_site_fract_z
_atom_site_charge
  Ge     Ge        0.556730000000016    0.000000000000000    0.122129999999970  0.0000
  Ge     Ge        0.849058581357702    0.333451172392418    0.721063997138178  0.0000
  Ge     Ge        0.858514542973490    0.345850448584348    0.037523045851814  0.0000
  Si     Si        0.049560984860840    0.998019239936392    0.382671486982095  0.0000
  Si     Si        0.449226407951693    0.002445030933473    0.378878938332965  0.0000
  Si     Si        0.951117992331944    0.024999565886245    0.638378191259403  0.0000
  Si     Si        0.544700113361702    0.000109105153294    0.640675622450429  0.0000
  Si     Si        0.946089508972021    0.022918175081566    0.132822899333287  0.0000
  Si     Si        0.441161574700933    0.010428381159409    0.883385939209193  0.0000
  Si     Si        0.055125475594473    0.005680751203887    0.892816128932431  0.0000
  Si     Si        0.152473306512952    0.309251247314833    0.291609283589498  0.0000
  Si     Si        0.345494258221735    0.691821035526274    0.297065894686242  0.0000
  Si     Si        0.648908382879312    0.697384393899318    0.736037315691417  0.0000
  Si     Si        0.829091768498946    0.745255827954076    0.728722291515363  0.0000
  Si     Si        0.667026913317822    0.291546703679545    0.732798543786484  0.0000
  Si     Si        0.164569700362652    0.714697431318337    0.293206176862602  0.0000
  Si     Si        0.334180028780616    0.286743722322032    0.294019817147603  0.0000
  Si     Si        0.676321686515267    0.287869765311179    0.037750461050651  0.0000
  Si     Si        0.831058709239284    0.745694181003890    0.033712619511095  0.0000
  Si     Si        0.332842748991700    0.292903976863151    0.991792561927619  0.0000
  Si     Si        0.165714262611962    0.720471420514602    0.990540923656493  0.0000
  Si     Si        0.346973532430035    0.693756374225565    0.994806475528141  0.0000
  Si     Si        0.151020560622673    0.319811664713051    0.990563946717462  0.0000
  Si     Si        0.650276077338068    0.681414601180269    0.036253000091040  0.0000
  O2     O2        0.094378603474656    0.187293469369158    0.375811968991920  0.0000
  O2     O2        0.405019100324307    0.811854785458965    0.381340784447165  0.0000
  O3     O3        0.916898775089951    0.219028235251538    0.631627340066490  0.0000
  O2     O2        0.587314633368061    0.812263448197956    0.653875389031014  0.0000
  O2     O2        0.875045303946009    0.895135612223010    0.647877020982400  0.0000
  O2     O2        0.607166327918004    0.157968026236868    0.662404115406890  0.0000
  O2     O2        0.113548988521913    0.843827132379584    0.379263937286913  0.0000
  O2     O2        0.383786430593211    0.155014131959709    0.383356089973863  0.0000
  O2     O2        0.001760848712506    0.981911345794322    0.513621735011774  0.0000
  O2     O2        0.509584950432351    0.016494648679985    0.497254183835660  0.0000
  O2     O2        0.987915191396617    0.972002137644366    0.266360884302095  0.0000
  O3     O3        0.497630504800250    0.033951076034492    0.250031364484145  0.0000
  O2     O2        0.008557877157708    0.990938001278338    0.759685978719166  0.0000
  O2     O2        0.471557753842857    0.013293938087614    0.737075445584159  0.0000
  O3     O3        0.636376113283999    0.142143155093632    0.125968903729387  0.0000
  O2     O2        0.865645335097188    0.907771985151687    0.117368996487333  0.0000
  O2     O2        0.374244647436427    0.156742112965816    0.898408652692783  0.0000
  O2     O2        0.122130384898183    0.857934609710687    0.897938351228838  0.0000
  O2     O2        0.406243987992739    0.815546775831888    0.914165461301308  0.0000
  O2     O2        0.094312083566430    0.200955184414245    0.901175978775095  0.0000
  O3     O3        0.591315940113109    0.787130083629734    0.123744179511437  0.0000
  O3     O3        0.924878931897549    0.226591365733073    0.129257565611598  0.0000
  O3     O3        0.511202551314089    0.058388237815768    0.979147914493311  0.0000
  O2     O2        0.999331626140294    0.966800969187704    0.013005865963901  0.0000
  O2     O2        0.136784959168760    0.513789190664002    0.321017040061419  0.0000
  O2     O2        0.361577791956102    0.486781368626747    0.325257342563214  0.0000
  O3     O3        0.864060207204262    0.556960292262315    0.697703425162529  0.0000
  O2     O2        0.633777800545988    0.489368655183992    0.714155256850527  0.0000
  O2     O2        0.242241976081464    0.262622550289604    0.325795910987926  0.0000
  O2     O2        0.256066879329435    0.737347472879609    0.331851870168536  0.0000
  O3     O3        0.753323613166352    0.282319925314779    0.674277975605770  0.0000
  O2     O2        0.736802283586330    0.747940751286532    0.690076284440962  0.0000
  O2     O2        0.134693060383042    0.270301790739624    0.140382799411880  0.0000
  O2     O2        0.361563993650195    0.735753294790440    0.146235817074550  0.0000
  O1     O1        0.868424390250010    0.282893152686250    0.879702929754533  0.0000
  O2     O2        0.637038136227166    0.744362241837361    0.886983811459438  0.0000
  O2     O2        0.836371063909216    0.788746817332789    0.880881924216604  0.0000
  O2     O2        0.677020877342659    0.240850919996978    0.884509098583442  0.0000
  O2     O2        0.153774831512336    0.764459464731399    0.141833874433400  0.0000
  O2     O2        0.347610259173600    0.243116889138822    0.142512492265776  0.0000
  O2     O2        0.631863081412839    0.474334745985612    0.052697147014803  0.0000
  O3     O3        0.878065800491186    0.567974989824494    0.059629194910636  0.0000
  O2     O2        0.365784195699506    0.490512163790180    0.965359798329150  0.0000
  O2     O2        0.132106081305202    0.523856781556197    0.962456701407104  0.0000
  O3     O3        0.764379723438020    0.307278688002010    0.088692993993882  0.0000
  O2     O2        0.740739557397331    0.720768173835389    0.075229947449432  0.0000
  O2     O2        0.240895843629948    0.282396061602853    0.958255547699407  0.0000
  O2     O2        0.257424197813303    0.733487368887925    0.956389537417772  0.0000
