data_c00116.vasp
_audit_creation_method             Generated by GULP
_audit_author_name                 Salvador R. G. Balestra
_symmetry_space_group_name_H-M     'P 1             '
_symmetry_Int_Tables_number        1

loop_
_symmetry_equiv_pos_site_id
_symmetry_equiv_pos_as_xyz
_cell_length_a                       17.2071
_cell_length_b                        7.6375
_cell_length_c                       10.1518
_cell_angle_alpha                   89.3656
_cell_angle_beta                    90.7450
_cell_angle_gamma                   89.7245

loop_
_atom_site_label
_atom_site_type_symbol
_atom_site_fract_x
_atom_site_fract_y
_atom_site_fract_z
_atom_site_charge
  Ge     Ge        0.052090000000021    0.000000000000000    0.372269999999958  0.0000
  Ge     Ge        0.830074702959978    0.696373795767527    0.035565225417357  0.0000
  Ge     Ge        0.144676135749314    0.314608807773554    0.981314423009917  0.0000
  Si     Si        0.450379215400817    0.983537540886141    0.375116208239918  0.0000
  Si     Si        0.941548349474033    0.993240014564531    0.622526085871782  0.0000
  Si     Si        0.545296477130743    0.990094733196232    0.640901206732831  0.0000
  Si     Si        0.552333912598483    0.983490670114644    0.127227937142792  0.0000
  Si     Si        0.942081636959736    0.985259958595018    0.115897919607339  0.0000
  Si     Si        0.436725060278052    0.000141681491059    0.889873970029393  0.0000
  Si     Si        0.046328257454287    0.004538775985973    0.872234084488848  0.0000
  Si     Si        0.158115821247657    0.303113511678529    0.293118431709915  0.0000
  Si     Si        0.346571398239879    0.681404770501953    0.282429929840663  0.0000
  Si     Si        0.837692251679473    0.295427614678443    0.722417756749053  0.0000
  Si     Si        0.652613828882346    0.682013106364755    0.718958837263332  0.0000
  Si     Si        0.830047321573228    0.701342047869177    0.721560063095068  0.0000
  Si     Si        0.658496046916973    0.280767899056793    0.718215620557942  0.0000
  Si     Si        0.167412317929366    0.709375998272880    0.292430508867555  0.0000
  Si     Si        0.335866408367407    0.280818019287256    0.276754465323894  0.0000
  Si     Si        0.660021978490256    0.275417923854278    0.025445969587803  0.0000
  Si     Si        0.326549125725218    0.293277140006217    0.966367574943117  0.0000
  Si     Si        0.158805628852527    0.722607189997312    0.987128589660270  0.0000
  Si     Si        0.339134932966213    0.688769400986061    0.976029113725556  0.0000
  Si     Si        0.649098925694359    0.671633609987690    0.029505980912317  0.0000
  Si     Si        0.840659585928317    0.293428451748437    0.028525773362726  0.0000
  O3     O3        0.103673366102643    0.192372610225118    0.388252675037084  0.0000
  O2     O2        0.405332073828807    0.799506261803803    0.366079386868082  0.0000
  O2     O2        0.894605914307929    0.175607958058046    0.637862648276033  0.0000
  O2     O2        0.592864280550657    0.807611329362049    0.640309532134956  0.0000
  O2     O2        0.884235040560185    0.828299413988148    0.636425407758486  0.0000
  O2     O2        0.605968176739895    0.150538552991120    0.632689692110705  0.0000
  O3     O3        0.117847698832106    0.828017287551208    0.387621259294183  0.0000
  O2     O2        0.390919401613894    0.143633080632739    0.352180499260825  0.0000
  O3     O3        0.976338725038537    0.988022957957058    0.478786745990276  0.0000
  O2     O2        0.486396799811045    0.999082174181052    0.519422944961556  0.0000
  O3     O3        0.011174050499549    0.989322770208788    0.217569446250648  0.0000
  O2     O2        0.521067337082830    0.991155291215811    0.274169563736558  0.0000
  O2     O2        0.014606630855670    0.981300069032908    0.723827830395178  0.0000
  O2     O2        0.495148281199313    0.007074333142897    0.770951122846835  0.0000
  O2     O2        0.618199822146594    0.130893821200097    0.113769971111930  0.0000
  O3     O3        0.883147624538592    0.827095805875451    0.138378005939650  0.0000
  O2     O2        0.375679767735833    0.160091800889588    0.878681409864150  0.0000
  O2     O2        0.118341006925053    0.871804722926106    0.897576241860430  0.0000
  O2     O2        0.391037387329802    0.816107148423381    0.887078482479524  0.0000
  O3     O3        0.076896789129905    0.200337399317265    0.891434572746095  0.0000
  O2     O2        0.587003151602758    0.790780492236733    0.103228845283329  0.0000
  O2     O2        0.892569852877632    0.165410882778853    0.119230157411797  0.0000
  O2     O2        0.482851639285244    0.024920315209621    0.026084229687934  0.0000
  O2     O2        0.977178186162134    0.956586711639241    0.970456595384479  0.0000
  O2     O2        0.140630891926175    0.508780160455415    0.308263083857084  0.0000
  O2     O2        0.366120272521401    0.476760941351017    0.306506045244466  0.0000
  O2     O2        0.857516061771186    0.500177944166750    0.701189101219582  0.0000
  O2     O2        0.631358018269434    0.480353418595975    0.689740298123024  0.0000
  O2     O2        0.248286124520933    0.261005273652812    0.328841114119687  0.0000
  O2     O2        0.258930423530797    0.723576446105073    0.326495659620035  0.0000
  O2     O2        0.748651358340475    0.258645160542134    0.679472889316353  0.0000
  O2     O2        0.740361917422856    0.721078633479153    0.672838276149302  0.0000
  O3     O3        0.139897925523597    0.247905811705794    0.143529378584110  0.0000
  O2     O2        0.356744943378311    0.729663718755273    0.128805922457971  0.0000
  O2     O2        0.850912608205981    0.244515009523346    0.875236152441420  0.0000
  O2     O2        0.647426559923855    0.718390360484257    0.874260566033172  0.0000
  O3     O3        0.835899504538896    0.756530687601933    0.872184241553724  0.0000
  O2     O2        0.649018584445268    0.230565720245671    0.871808265864354  0.0000
  O2     O2        0.152529758142157    0.772501524425389    0.141227322057451  0.0000
  O2     O2        0.334152805754605    0.244301945082511    0.121171379626422  0.0000
  O2     O2        0.625606315439323    0.468584358844527    0.052777052093554  0.0000
  O3     O3        0.867536261327837    0.487864959490382    0.055075671615872  0.0000
  O2     O2        0.360119135369736    0.488655754895411    0.942463540910932  0.0000
  O3     O3        0.121311214396125    0.534605804579046    0.964313906043688  0.0000
  O2     O2        0.750470361861061    0.272438087295337    0.065511696265496  0.0000
  O3     O3        0.734674003862820    0.705276361477144    0.084649118357619  0.0000
  O3     O3        0.237451363470852    0.282665740244047    0.923247838300611  0.0000
  O2     O2        0.248514904378225    0.719441555221236    0.944720092260207  0.0000
