data_c00240.vasp
_audit_creation_method             Generated by GULP
_audit_author_name                 Salvador R. G. Balestra
_symmetry_space_group_name_H-M     'P 1             '
_symmetry_Int_Tables_number        1

loop_
_symmetry_equiv_pos_site_id
_symmetry_equiv_pos_as_xyz
_cell_length_a                       17.1056
_cell_length_b                        7.6363
_cell_length_c                       10.2341
_cell_angle_alpha                   91.1884
_cell_angle_beta                    90.2029
_cell_angle_gamma                   89.3730

loop_
_atom_site_label
_atom_site_type_symbol
_atom_site_fract_x
_atom_site_fract_y
_atom_site_fract_z
_atom_site_charge
  Ge     Ge        0.160189999999943    0.293909999999983    0.273440000000051  0.0000
  Ge     Ge        0.644846607496308    0.343192681362516    0.021177616457121  0.0000
  Ge     Ge        0.831430110908972    0.305878970172178    0.023551982774403  0.0000
  Si     Si        0.047419926507793    0.003592808477862    0.359271955564489  0.0000
  Si     Si        0.450917672350949    0.004556739527802    0.357693688432912  0.0000
  Si     Si        0.944730151400045    0.987887059412669    0.612551908816338  0.0000
  Si     Si        0.547247204710860    0.005474622430918    0.621032655201731  0.0000
  Si     Si        0.552927306025203    0.025149240288582    0.110767362928306  0.0000
  Si     Si        0.942392307211631    0.012423754827578    0.105238779338907  0.0000
  Si     Si        0.439412489023118    0.995925950756679    0.871272569500539  0.0000
  Si     Si        0.051240709063412    0.002889694985677    0.861467515034778  0.0000
  Si     Si        0.337323298723022    0.712593084129897    0.265316151427053  0.0000
  Si     Si        0.831052739443421    0.284484065220471    0.711860721507702  0.0000
  Si     Si        0.661373300009103    0.714760978923409    0.699517677232451  0.0000
  Si     Si        0.841298060748606    0.689707347951745    0.703647300005172  0.0000
  Si     Si        0.651936164514289    0.312178804878794    0.707938157683554  0.0000
  Si     Si        0.156432874833788    0.704391977864379    0.274214120413282  0.0000
  Si     Si        0.344111489169675    0.308939034716052    0.266281314268495  0.0000
  Si     Si        0.844723726445012    0.702880902929518    0.005530661738187  0.0000
  Si     Si        0.339249857308893    0.309024738604910    0.959918293126996  0.0000
  Si     Si        0.150974097145234    0.695381153878719    0.969215097505331  0.0000
  Si     Si        0.331493233410123    0.707199607849305    0.960305370134026  0.0000
  Si     Si        0.158640721776346    0.292912017678871    0.962574738263605  0.0000
  Si     Si        0.662413796848897    0.739870628204304    0.003992492520155  0.0000
  O3     O3        0.101067686411659    0.172938500693196    0.370910123722900  0.0000
  O2     O2        0.390096586376081    0.845375254669769    0.348822136415082  0.0000
  O2     O2        0.884875093768758    0.150847791739202    0.628142077973646  0.0000
  O2     O2        0.609257915664213    0.844103404815146    0.612267851550000  0.0000
  O2     O2        0.898873345381570    0.804115295549377    0.616972922812291  0.0000
  O2     O2        0.593347744705147    0.188357676315704    0.625711328965194  0.0000
  O2     O2        0.104841703191240    0.834888353523219    0.363903223904921  0.0000
  O2     O2        0.406367383683377    0.189789166988403    0.341947734510594  0.0000
  O2     O2        0.983404832456272    0.997925251738206    0.471422112652462  0.0000
  O2     O2        0.491424896205871    0.001615610822294    0.497061923392081  0.0000
  O2     O2        0.003840878957412    0.003334488865748    0.220771778995850  0.0000
  O2     O2        0.518291826285807    0.979279287344761    0.250379297886610  0.0000
  O2     O2        0.013780342855630    0.996131890430627    0.718618801118034  0.0000
  O2     O2        0.492385675931797    0.982522519491160    0.745107800214960  0.0000
  O3     O3        0.576653836522362    0.226014436495494    0.105705817740436  0.0000
  O2     O2        0.892778235823931    0.834707282125456    0.097335437242232  0.0000
  O2     O2        0.394396193228126    0.182892975600389    0.872776760310148  0.0000
  O2     O2        0.093726094856990    0.816751801689287    0.885654768978065  0.0000
  O2     O2        0.377445810330679    0.838193388131163    0.868572125896589  0.0000
  O2     O2        0.112083499753687    0.162580894779120    0.866015069286151  0.0000
  O2     O2        0.631015255291463    0.907182761065854    0.086121955174948  0.0000
  O3     O3        0.883946555193935    0.173603163169902    0.125880604121694  0.0000
  O2     O2        0.490985555738470    0.972965282989778    0.999838827877954  0.0000
  O2     O2        0.985097439879252    0.043493612372481    0.967968388227954  0.0000
  O3     O3        0.133292624163409    0.508797504587163    0.302428068490675  0.0000
  O2     O2        0.363813505480597    0.513261330662457    0.292613360156432  0.0000
  O2     O2        0.860854500410208    0.482877208495790    0.689927488758437  0.0000
  O2     O2        0.631832098922892    0.515846591137186    0.680199947732013  0.0000
  O3     O3        0.257645292663034    0.267172990589532    0.313207755542728  0.0000
  O2     O2        0.247439187308536    0.737397898375596    0.308239226491242  0.0000
  O2     O2        0.741057667940167    0.270349694725959    0.663981976679551  0.0000
  O2     O2        0.752166839867393    0.726065030506801    0.658280633429104  0.0000
  O3     O3        0.147265853284374    0.236425850783326    0.110795581461607  0.0000
  O2     O2        0.345161304886033    0.755901268181567    0.112506355435052  0.0000
  O3     O3        0.833907990177679    0.234547980179022    0.862198536483021  0.0000
  O2     O2        0.653475954302650    0.776838586938001    0.850099044850478  0.0000
  O2     O2        0.854191859604105    0.752736660692771    0.853614510913622  0.0000
  O3     O3        0.641597278861601    0.274602445723426    0.859370181905033  0.0000
  O2     O2        0.141776666498531    0.745807516018453    0.121611946887169  0.0000
  O2     O2        0.351293775331439    0.265181071025869    0.111770964042454  0.0000
  O3     O3        0.618680017770000    0.562462834517128    0.036530645171453  0.0000
  O3     O3        0.874502739454526    0.509614219727377    0.031164367872738  0.0000
  O2     O2        0.361995394231635    0.509128588745940    0.931850647290748  0.0000
  O2     O2        0.127989778698124    0.492619055167298    0.945454846027059  0.0000
  O1     O1        0.737385910864887    0.309372195676612    0.077868459425782  0.0000
  O2     O2        0.752983832388457    0.710097158244337    0.041130134823955  0.0000
  O2     O2        0.249308884377751    0.278662794077253    0.922407772064551  0.0000
  O2     O2        0.240038730072796    0.724504970163584    0.925310177637832  0.0000
