data_c00251.vasp
_audit_creation_method             Generated by GULP
_audit_author_name                 Salvador R. G. Balestra
_symmetry_space_group_name_H-M     'P 1             '
_symmetry_Int_Tables_number        1

loop_
_symmetry_equiv_pos_site_id
_symmetry_equiv_pos_as_xyz
_cell_length_a                       17.0982
_cell_length_b                        7.6218
_cell_length_c                       10.2616
_cell_angle_alpha                   90.2230
_cell_angle_beta                    90.4387
_cell_angle_gamma                   89.9153

loop_
_atom_site_label
_atom_site_type_symbol
_atom_site_fract_x
_atom_site_fract_y
_atom_site_fract_z
_atom_site_charge
  Ge     Ge        0.160189999999943    0.293909999999983    0.273440000000051  0.0000
  Ge     Ge        0.340465783725360    0.332731623812776    0.955018749402380  0.0000
  Ge     Ge        0.826346977671595    0.287243027899697    0.018125292565398  0.0000
  Si     Si        0.044985290572125    0.001995564860202    0.361963367445702  0.0000
  Si     Si        0.448326192032213    0.013942449020478    0.354871128239790  0.0000
  Si     Si        0.941558969398933    0.993075943024538    0.614634153934559  0.0000
  Si     Si        0.544086413822951    0.005614070133103    0.619728423068779  0.0000
  Si     Si        0.550259551576369    0.012714563219348    0.103667582336619  0.0000
  Si     Si        0.938110027485641    0.002051134707984    0.109035263168949  0.0000
  Si     Si        0.436507540090391    0.015063312241574    0.864994746699326  0.0000
  Si     Si        0.045497289962389    0.012123777896193    0.867057058173879  0.0000
  Si     Si        0.332222800497453    0.724598639416449    0.266167798753622  0.0000
  Si     Si        0.827480363474631    0.283010221125021    0.708283879285992  0.0000
  Si     Si        0.659107801919936    0.716358454601851    0.704099889404874  0.0000
  Si     Si        0.839147228795766    0.689211199913994    0.708304356190908  0.0000
  Si     Si        0.648680385778146    0.314921602875048    0.707827643034431  0.0000
  Si     Si        0.151655013175974    0.703820895446128    0.277039916742968  0.0000
  Si     Si        0.342969867501071    0.318810777135203    0.266412573737250  0.0000
  Si     Si        0.644416171381232    0.329021609975721    0.014544032177723  0.0000
  Si     Si        0.842846119101080    0.690018244484410    0.010700130999818  0.0000
  Si     Si        0.144119326762271    0.702334057690623    0.974392153763295  0.0000
  Si     Si        0.324423213637880    0.736389351523265    0.962260937598249  0.0000
  Si     Si        0.157516575373894    0.300898230661650    0.962359218173038  0.0000
  Si     Si        0.661127843883694    0.724134948449331    0.007997101745171  0.0000
  O3     O3        0.101911898416621    0.167105551981600    0.370009301665911  0.0000
  O2     O2        0.384799975511393    0.857710146046163    0.350083387083566  0.0000
  O2     O2        0.879939003934641    0.153099188756604    0.621780552441178  0.0000
  O2     O2        0.608180510502675    0.849944842350645    0.618128332219203  0.0000
  O2     O2        0.896866687964477    0.807009745388145    0.623008104175837  0.0000
  O2     O2        0.587534491901697    0.192543888969663    0.631589317746006  0.0000
  O2     O2        0.098949344309425    0.828354650892326    0.367142946452536  0.0000
  O2     O2        0.405719835557659    0.202086059518074    0.345805057577246  0.0000
  O2     O2        0.982575104714091    0.000240049097189    0.475996485687527  0.0000
  O2     O2        0.494532433993303    0.001925998652741    0.489006079320928  0.0000
  O2     O2        0.998811338187838    0.009442486438597    0.225816491655184  0.0000
  O2     O2        0.511629048130252    0.989470454271638    0.242505597822992  0.0000
  O2     O2        0.008048419343222    0.010511053174138    0.724371201776804  0.0000
  O2     O2        0.484263180907715    0.973340470442880    0.736193373343259  0.0000
  O2     O2        0.581331835312523    0.211763040594557    0.089749111008090  0.0000
  O2     O2        0.898157636911651    0.811128187974967    0.099735924723677  0.0000
  O3     O3        0.405823670586279    0.212916495624335    0.864187123911881  0.0000
  O2     O2        0.085770364123694    0.823311967905974    0.891378398439945  0.0000
  O2     O2        0.360947823570212    0.888409000963986    0.874026798208774  0.0000
  O2     O2        0.107526698103447    0.170085290943585    0.871548175813216  0.0000
  O2     O2        0.621241442075468    0.874159595845641    0.094113477152180  0.0000
  O3     O3        0.871633716489081    0.147036496824936    0.124470431532436  0.0000
  O2     O2        0.488720726189603    0.969667904083313    0.990653635452025  0.0000
  O2     O2        0.980001569087895    0.052226474593539    0.973936598660217  0.0000
  O3     O3        0.128265517700210    0.505640356453970    0.299184950589868  0.0000
  O2     O2        0.362711511650061    0.525705885887961    0.283924952107714  0.0000
  O2     O2        0.857207158300560    0.482937931071364    0.689068752079769  0.0000
  O2     O2        0.629259174984699    0.518239416403994    0.677924647282862  0.0000
  O3     O3        0.257190106298196    0.279505059157473    0.319551966282659  0.0000
  O2     O2        0.242728372812530    0.736271335232667    0.313959433560170  0.0000
  O2     O2        0.736758668041881    0.270064014913798    0.662915273695414  0.0000
  O2     O2        0.750043081834489    0.730577843457907    0.665312719905187  0.0000
  O3     O3        0.154980396416563    0.236307624174506    0.110996725928696  0.0000
  O2     O2        0.335762603439535    0.780320872879464    0.115307421308637  0.0000
  O3     O3        0.833392311571818    0.224574748760030    0.857252798916625  0.0000
  O2     O2        0.650752900786532    0.768857195834991    0.855616716738692  0.0000
  O2     O2        0.852980100878865    0.741160870425783    0.859032668959768  0.0000
  O2     O2        0.641288552067793    0.279326026928104    0.861524660358897  0.0000
  O2     O2        0.137427517858488    0.755743802608259    0.125770303277666  0.0000
  O3     O3        0.348896398853314    0.268517462599253    0.115191158615060  0.0000
  O2     O2        0.622726422575432    0.534103495680329    0.036032027315568  0.0000
  O3     O3        0.867282039341212    0.492711911704328    0.035682165336203  0.0000
  O3     O3        0.363459157599740    0.550470392127462    0.932504758954744  0.0000
  O2     O2        0.121393299339312    0.498393996718236    0.955470697976404  0.0000
  O3     O3        0.730297463788979    0.291841093136268    0.066974756372307  0.0000
  O2     O2        0.752123602537670    0.718722055398263    0.047598589391857  0.0000
  O3     O3        0.244592582434256    0.301116790021378    0.908374289877834  0.0000
  O2     O2        0.232559075660126    0.730114871928500    0.926809096575149  0.0000
