data_c00216.vasp
_audit_creation_method             Generated by GULP
_audit_author_name                 Salvador R. G. Balestra
_symmetry_space_group_name_H-M     'P 1             '
_symmetry_Int_Tables_number        1

loop_
_symmetry_equiv_pos_site_id
_symmetry_equiv_pos_as_xyz
_cell_length_a                       17.1070
_cell_length_b                        7.5874
_cell_length_c                       10.2975
_cell_angle_alpha                   91.7356
_cell_angle_beta                    89.5232
_cell_angle_gamma                   89.6090

loop_
_atom_site_label
_atom_site_type_symbol
_atom_site_fract_x
_atom_site_fract_y
_atom_site_fract_z
_atom_site_charge
  Ge     Ge        0.160189999999943    0.293909999999983    0.273440000000051  0.0000
  Ge     Ge        0.662364290482259    0.642838711810683    0.698810005860250  0.0000
  Ge     Ge        0.363631821951451    0.627028478724866    0.955084356691277  0.0000
  Si     Si        0.056558652449682    0.987475434953969    0.352927521050991  0.0000
  Si     Si        0.460876033848118    0.973054476419494    0.357681520808957  0.0000
  Si     Si        0.963612832768267    0.952889451950950    0.614877948433633  0.0000
  Si     Si        0.557557293569471    0.950320926174000    0.615796660021231  0.0000
  Si     Si        0.568911205965434    0.968284031556283    0.109450899714372  0.0000
  Si     Si        0.953471304217821    0.971385228022730    0.101974997942874  0.0000
  Si     Si        0.457425973402146    0.943237863524105    0.870367335004753  0.0000
  Si     Si        0.069268290549443    0.956410601199707    0.864863046546197  0.0000
  Si     Si        0.357997588935915    0.664838491344458    0.263120045233254  0.0000
  Si     Si        0.857747037080148    0.262519105345983    0.702517481083445  0.0000
  Si     Si        0.846311764292349    0.668397188648532    0.698367877913597  0.0000
  Si     Si        0.677602340599391    0.229919707030927    0.705732359295413  0.0000
  Si     Si        0.179039732980534    0.703457360282979    0.255728446044071  0.0000
  Si     Si        0.343177186117313    0.259136407449108    0.274843121686066  0.0000
  Si     Si        0.678645755899625    0.251230455629801    0.009108905451691  0.0000
  Si     Si        0.843570343048807    0.681103938388909    0.002836348891899  0.0000
  Si     Si        0.342460421615784    0.225292292905482    0.970444239381594  0.0000
  Si     Si        0.181554314844773    0.668103526005760    0.950428886493539  0.0000
  Si     Si        0.162169564578520    0.272081284762939    0.965248350470659  0.0000
  Si     Si        0.662833518553268    0.652415053727503    0.007167767659411  0.0000
  Si     Si        0.858772484988837    0.282313704967364    0.004980657198745  0.0000
  O3     O3        0.091048877264059    0.182637820972837    0.361376051054682  0.0000
  O2     O2        0.416151833684192    0.786816747749432    0.348193942493416  0.0000
  O2     O2        0.916645777240101    0.138331628749262    0.618911475551326  0.0000
  O3     O3        0.594161400650063    0.755872540366613    0.611426727813525  0.0000
  O2     O2        0.902447822786469    0.792756869545586    0.617008266898142  0.0000
  O2     O2        0.631437018067169    0.081674413823116    0.624431881702486  0.0000
  O2     O2        0.131672199430898    0.861440546436894    0.326470352358994  0.0000
  O2     O2        0.398754692838573    0.133337570721519    0.356360482678844  0.0000
  O2     O2        0.013993590692565    0.936089512382111    0.484504479863581  0.0000
  O2     O2        0.506706428788058    0.986883078852220    0.491155576910440  0.0000
  O2     O2        0.993296879291774    0.961586825137757    0.240193698111048  0.0000
  O2     O2        0.524688227520100    0.992003329686557    0.244863044697849  0.0000
  O2     O2        0.022629934541785    0.939785737090299    0.732931640711611  0.0000
  O2     O2        0.501052812945376    0.988306788394817    0.738644574936055  0.0000
  O2     O2        0.634939199331153    0.118328278573967    0.102299571871947  0.0000
  O2     O2        0.885856198442155    0.825331291420472    0.093168579425887  0.0000
  O2     O2        0.378682115880914    0.061072067485447    0.888330437825899  0.0000
  O2     O2        0.134803585657011    0.803440832830289    0.863017517851300  0.0000
  O3     O3        0.431715777766698    0.741041558665597    0.866947803512962  0.0000
  O2     O2        0.108551331359321    0.148694142411183    0.873598182145412  0.0000
  O2     O2        0.607958810051574    0.773814950090417    0.101143564056576  0.0000
  O2     O2        0.916821899256850    0.166719919315814    0.089557753123985  0.0000
  O2     O2        0.510614002487863    0.996879220118712    0.991961830201895  0.0000
  O2     O2        0.014311961894538    0.924767823141963    0.987921321985841  0.0000
  O3     O3        0.142109082411103    0.517468016840633    0.288916011993895  0.0000
  O2     O2        0.374927481081766    0.459223845750618    0.288438046508715  0.0000
  O2     O2        0.874215221262356    0.466006508526946    0.673593186064787  0.0000
  O3     O3        0.645148493824295    0.421158281972098    0.675155570035150  0.0000
  O3     O3        0.254524553888166    0.252565696544918    0.324205971690009  0.0000
  O2     O2        0.268570037340137    0.710040434180742    0.304466845230381  0.0000
  O2     O2        0.768869057851015    0.216644991611993    0.664959599366312  0.0000
  O3     O3        0.757497116690619    0.689117519275640    0.654766022126427  0.0000
  O3     O3        0.147359071589242    0.225202688094858    0.113462215751219  0.0000
  O3     O3        0.372455560162748    0.704153138974836    0.113559947465554  0.0000
  O2     O2        0.871237407823963    0.226220379707950    0.854139763307204  0.0000
  O3     O3        0.646693604258779    0.702759613417481    0.860286477170675  0.0000
  O2     O2        0.852129089406145    0.722898051381252    0.851019227538586  0.0000
  O2     O2        0.669361553607955    0.192110601843120    0.858769834370302  0.0000
  O2     O2        0.180705136135847    0.731496148112601    0.101249093443411  0.0000
  O2     O2        0.345149468330210    0.193257865307388    0.124444165751417  0.0000
  O2     O2        0.642851019057247    0.447874335497719    0.029940327250640  0.0000
  O2     O2        0.879408229447793    0.487674500417371    0.029000223694468  0.0000
  O3     O3        0.386237981957958    0.405446089013923    0.940485785060892  0.0000
  O2     O2        0.141097842079585    0.475670328579396    0.939312540666686  0.0000
  O2     O2        0.769580569192104    0.248599702940888    0.047138832898924  0.0000
  O2     O2        0.752851640674586    0.686634583178863    0.042009026839307  0.0000
  O2     O2        0.252791359171383    0.241502652251464    0.927910082815719  0.0000
  O3     O3        0.269851348953464    0.658714583753373    0.900388597770616  0.0000
