data_c00202.vasp
_audit_creation_method             Generated by GULP
_audit_author_name                 Salvador R. G. Balestra
_symmetry_space_group_name_H-M     'P 1             '
_symmetry_Int_Tables_number        1

loop_
_symmetry_equiv_pos_site_id
_symmetry_equiv_pos_as_xyz
_cell_length_a                       17.1337
_cell_length_b                        7.6296
_cell_length_c                       10.2038
_cell_angle_alpha                   90.4304
_cell_angle_beta                    89.7943
_cell_angle_gamma                   89.7629

loop_
_atom_site_label
_atom_site_type_symbol
_atom_site_fract_x
_atom_site_fract_y
_atom_site_fract_z
_atom_site_charge
  Ge     Ge        0.160189999999943    0.293909999999983    0.273440000000051  0.0000
  Ge     Ge        0.330421382201193    0.738521914962517    0.276742592343154  0.0000
  Ge     Ge        0.646284735910902    0.347021017838104    0.028175464115624  0.0000
  Si     Si        0.041935066675692    0.010429490942959    0.358416290103001  0.0000
  Si     Si        0.448630385063468    0.022482517095715    0.360120025342423  0.0000
  Si     Si        0.944860959517860    0.008216777867985    0.618456419596282  0.0000
  Si     Si        0.548490608256742    0.025252152512335    0.617255416583048  0.0000
  Si     Si        0.548450738726657    0.030820199457030    0.105762668240371  0.0000
  Si     Si        0.942075987237607    0.027409838592513    0.100684762796832  0.0000
  Si     Si        0.438449649444788    0.022642412453362    0.861925038082339  0.0000
  Si     Si        0.055024363959636    0.013719280768470    0.860202254412241  0.0000
  Si     Si        0.830924183966228    0.305405161075655    0.718843932027047  0.0000
  Si     Si        0.661302502289274    0.731885737194041    0.712032131582234  0.0000
  Si     Si        0.840541991067256    0.707432207678600    0.711819876848059  0.0000
  Si     Si        0.652362734600859    0.327438811312863    0.715491154353574  0.0000
  Si     Si        0.146721692238712    0.704092329921764    0.276539889024500  0.0000
  Si     Si        0.344479516810472    0.328052086590298    0.273311220149149  0.0000
  Si     Si        0.843490804525783    0.714034395967685    0.017364323182829  0.0000
  Si     Si        0.342213550463481    0.334481081336350    0.966585904510493  0.0000
  Si     Si        0.150584403069969    0.702792613710867    0.968996027272936  0.0000
  Si     Si        0.330059382465570    0.735628903305837    0.965587512005758  0.0000
  Si     Si        0.162328609410294    0.302010270463694    0.962443027362962  0.0000
  Si     Si        0.663311920325618    0.749292795226860    0.018804048439197  0.0000
  Si     Si        0.828969678860902    0.318727365189066    0.027097983097655  0.0000
  O3     O3        0.107958482062415    0.156582799630128    0.372162313079341  0.0000
  O3     O3        0.383262789817272    0.875774205390502    0.376064847049659  0.0000
  O2     O2        0.886060561450230    0.170054734813271    0.642217458698643  0.0000
  O2     O2        0.607727587587439    0.861238692641535    0.628082391169164  0.0000
  O2     O2        0.898617017086728    0.825401714126385    0.627276251761635  0.0000
  O2     O2        0.594873892623293    0.207130652542707    0.630327665021554  0.0000
  O2     O2        0.084288197159654    0.821509195397560    0.355986481764494  0.0000
  O2     O2        0.406117555679583    0.210810808653811    0.352332240541697  0.0000
  O2     O2        0.978831290724751    0.021382065298779    0.473262641980183  0.0000
  O2     O2        0.511106105006314    0.021361877378367    0.474823456437618  0.0000
  O2     O2        0.998353644108783    0.046510624999113    0.222597447161712  0.0000
  O2     O2        0.494937715843044    0.977607999159408    0.226565775826293  0.0000
  O2     O2        0.017381446898219    0.013194681146949    0.717299800601563  0.0000
  O2     O2        0.478148809971868    0.011912413834130    0.720605959692014  0.0000
  O3     O3        0.578931109484677    0.228232400902261    0.115834011272111  0.0000
  O2     O2        0.899928334330744    0.838414630865073    0.101252206348705  0.0000
  O2     O2        0.398755356499654    0.214058775212736    0.878282857770622  0.0000
  O2     O2        0.093667291297384    0.823727406942067    0.884186645280578  0.0000
  O2     O2        0.374861317514023    0.868015235303082    0.869985295564424  0.0000
  O2     O2        0.118806342856885    0.168459937011643    0.864844082706326  0.0000
  O2     O2        0.624942266566584    0.906380597750753    0.101472085350587  0.0000
  O2     O2        0.878437670790036    0.181982073210208    0.111044114662917  0.0000
  O2     O2        0.502610844243474    0.992980913529284    0.972241669527063  0.0000
  O2     O2        0.989219823892785    0.055159014995990    0.967174998411788  0.0000
  O3     O3        0.126478922378601    0.503987755456278    0.299255702224734  0.0000
  O3     O3        0.364313622833877    0.528404743289165    0.298687345601671  0.0000
  O2     O2        0.859736821294568    0.502475148465064    0.688168062660035  0.0000
  O2     O2        0.633404044631856    0.532124247387602    0.689700037862681  0.0000
  O3     O3        0.257170893370402    0.283383169311215    0.317464321817621  0.0000
  O3     O3        0.233714189692408    0.747545454986764    0.323230837770425  0.0000
  O2     O2        0.741496516429648    0.284521305279541    0.672494249049876  0.0000
  O2     O2        0.751752292455459    0.749161092467146    0.669173513582205  0.0000
  O3     O3        0.151599606956167    0.237518608856779    0.109964023976887  0.0000
  O3     O3        0.338830493364151    0.798426651767067    0.114416891798837  0.0000
  O2     O2        0.832439204039835    0.267802947812887    0.873436265153292  0.0000
  O2     O2        0.654209341225299    0.784285240830282    0.864056077033830  0.0000
  O2     O2        0.853702843008616    0.756901426248800    0.863919629228087  0.0000
  O3     O3        0.638358004596911    0.283846443978489    0.866299574520991  0.0000
  O2     O2        0.141855892585760    0.750692208759744    0.121867061247799  0.0000
  O2     O2        0.352290270533322    0.282824402513635    0.118066012655162  0.0000
  O3     O3        0.624027707447129    0.565404309410605    0.051612403371204  0.0000
  O2     O2        0.865454567893461    0.512829823237115    0.046825230497870  0.0000
  O2     O2        0.364559964475188    0.538325994383537    0.947703251779368  0.0000
  O2     O2        0.128255897497741    0.499217093656977    0.946080228890973  0.0000
  O3     O3        0.741140496407617    0.313516645977922    0.077677454702849  0.0000
  O2     O2        0.754033399379406    0.745984229858669    0.058383399056317  0.0000
  O2     O2        0.253431095982159    0.301890454838352    0.923541939996666  0.0000
  O2     O2        0.239357354995070    0.736338548245429    0.924582823086800  0.0000
