data_c00237.vasp
_audit_creation_method             Generated by GULP
_audit_author_name                 Salvador R. G. Balestra
_symmetry_space_group_name_H-M     'P 1             '
_symmetry_Int_Tables_number        1

loop_
_symmetry_equiv_pos_site_id
_symmetry_equiv_pos_as_xyz
_cell_length_a                       17.1256
_cell_length_b                        7.6311
_cell_length_c                       10.2118
_cell_angle_alpha                   91.0656
_cell_angle_beta                    90.2714
_cell_angle_gamma                   89.6731

loop_
_atom_site_label
_atom_site_type_symbol
_atom_site_fract_x
_atom_site_fract_y
_atom_site_fract_z
_atom_site_charge
  Ge     Ge        0.160189999999943    0.293909999999983    0.273440000000051  0.0000
  Ge     Ge        0.645125282724391    0.334736357961266    0.012206755931977  0.0000
  Ge     Ge        0.330167477338128    0.714039205436509    0.954927665106758  0.0000
  Si     Si        0.043845146184179    0.007805595857790    0.353103113979918  0.0000
  Si     Si        0.447652133214997    0.011912705209819    0.359309950398683  0.0000
  Si     Si        0.945780192295140    0.993003556098739    0.611286179644877  0.0000
  Si     Si        0.549827183657379    0.011760842145774    0.616355936744534  0.0000
  Si     Si        0.549039587441874    0.019999709800274    0.108486767441027  0.0000
  Si     Si        0.940488703569138    0.015956850514678    0.096154753468588  0.0000
  Si     Si        0.440415552724826    0.000568982225287    0.864714971398412  0.0000
  Si     Si        0.052770173359789    0.996498461822654    0.857733012647683  0.0000
  Si     Si        0.332345556521432    0.723971252722457    0.265652793977000  0.0000
  Si     Si        0.832108539536493    0.291562737322752    0.709917404666616  0.0000
  Si     Si        0.662271532993950    0.719212930155640    0.699051784226871  0.0000
  Si     Si        0.842214181801154    0.693055538058450    0.704247930594480  0.0000
  Si     Si        0.653313277419229    0.315880324888714    0.699645864164546  0.0000
  Si     Si        0.152649466775273    0.703183914313110    0.267941236148705  0.0000
  Si     Si        0.343490930842794    0.316902225814898    0.268213682523020  0.0000
  Si     Si        0.842987413360072    0.701635652107597    0.009021962250602  0.0000
  Si     Si        0.342084677670891    0.311529972571736    0.963115372707058  0.0000
  Si     Si        0.147983398200119    0.684340172569813    0.960403844416765  0.0000
  Si     Si        0.160783367380140    0.285248782198260    0.962865102343617  0.0000
  Si     Si        0.662169318838607    0.738058555272014    0.005493834843225  0.0000
  Si     Si        0.828137968867280    0.306169768740851    0.017969852510274  0.0000
  O3     O3        0.102896464758409    0.167657174819324    0.370884239107313  0.0000
  O2     O2        0.384447396370189    0.856449456377949    0.352689054689655  0.0000
  O2     O2        0.886476332998098    0.154891931380862    0.632553851669548  0.0000
  O2     O2        0.610508023954734    0.848465180334808    0.611247845678990  0.0000
  O2     O2        0.899808219909400    0.810046073189806    0.619897189762797  0.0000
  O2     O2        0.597465637200833    0.193225424908257    0.610296989866829  0.0000
  O2     O2        0.095624234880930    0.831094753104167    0.348878513706501  0.0000
  O2     O2        0.405726766098578    0.201333105690606    0.348172790093963  0.0000
  O2     O2        0.981100196276345    0.002034052219117    0.467573073447196  0.0000
  O2     O2        0.490008476206188    0.000280719228665    0.497615314746923  0.0000
  O2     O2        0.997543163790610    0.032646081435503    0.218093353602826  0.0000
  O2     O2        0.513595819244780    0.985675379680193    0.249782059894192  0.0000
  O2     O2        0.017093689515469    0.001885823179413    0.713226373802575  0.0000
  O2     O2        0.500390087505715    0.004447227459251    0.747830899701221  0.0000
  O3     O3        0.576505012820646    0.219029989372221    0.096659697409044  0.0000
  O2     O2        0.898223033352833    0.827184432978643    0.095922734829158  0.0000
  O2     O2        0.394677700378399    0.185147277080827    0.873109283696265  0.0000
  O2     O2        0.086672023845982    0.802133114266178    0.881162000104708  0.0000
  O3     O3        0.378657763239219    0.846380750497020    0.849015984126139  0.0000
  O2     O2        0.119708926199035    0.143917601733869    0.867052396060876  0.0000
  O2     O2        0.625324614845121    0.897456311447716    0.088645377261653  0.0000
  O2     O2        0.876804242292098    0.171272234601412    0.105071989664000  0.0000
  O2     O2        0.485610538747192    0.963540987320561    0.000007776333752  0.0000
  O2     O2        0.987024898714593    0.044206540220383    0.962948152110467  0.0000
  O3     O3        0.129115194452173    0.506948002007285    0.295862275865032  0.0000
  O2     O2        0.362096697255379    0.524097746874935    0.284037917486191  0.0000
  O2     O2        0.861712691401771    0.487884672492441    0.681033062981458  0.0000
  O2     O2        0.633908340748059    0.519953420990721    0.674258512815534  0.0000
  O3     O3        0.257329087764261    0.278727429857653    0.318239370821857  0.0000
  O2     O2        0.242295852685933    0.738101799606140    0.311985984703001  0.0000
  O2     O2        0.742906862096258    0.273272791360893    0.660818253756833  0.0000
  O2     O2        0.753275997784357    0.734343098842985    0.661308708149409  0.0000
  O3     O3        0.151618725520615    0.227327405442506    0.111459522994004  0.0000
  O3     O3        0.337625441202697    0.781404826914584    0.116312614175906  0.0000
  O2     O2        0.833159858783455    0.253724259797415    0.864250650573348  0.0000
  O2     O2        0.652313150938555    0.773484047036318    0.850926546394946  0.0000
  O2     O2        0.855505447316598    0.743991835258668    0.856538419768379  0.0000
  O3     O3        0.638141412989274    0.272779774445813    0.849719624526732  0.0000
  O2     O2        0.145932739557057    0.740911611518688    0.113214035074408  0.0000
  O2     O2        0.351002461633473    0.260808061043657    0.115428015387574  0.0000
  O3     O3        0.623022966574851    0.554267232241593    0.036108338354734  0.0000
  O2     O2        0.864312035000457    0.500574740732237    0.039130874226026  0.0000
  O3     O3        0.369623025144682    0.506327045085989    0.940025031300047  0.0000
  O2     O2        0.124096797061503    0.479732661774014    0.944574570160012  0.0000
  O3     O3        0.739686892067572    0.300609722383653    0.064596067169106  0.0000
  O2     O2        0.753005583161489    0.733633738834830    0.045197812793599  0.0000
  O2     O2        0.251503431334425    0.291526775430049    0.923280286373956  0.0000
  O3     O3        0.233776213019169    0.713860917956897    0.906270378448902  0.0000
