data_c00218.vasp
_audit_creation_method             Generated by GULP
_audit_author_name                 Salvador R. G. Balestra
_symmetry_space_group_name_H-M     'P 1             '
_symmetry_Int_Tables_number        1

loop_
_symmetry_equiv_pos_site_id
_symmetry_equiv_pos_as_xyz
_cell_length_a                       17.1431
_cell_length_b                        7.6049
_cell_length_c                       10.2592
_cell_angle_alpha                   91.5327
_cell_angle_beta                    90.1432
_cell_angle_gamma                   89.1559

loop_
_atom_site_label
_atom_site_type_symbol
_atom_site_fract_x
_atom_site_fract_y
_atom_site_fract_z
_atom_site_charge
  Ge     Ge        0.160189999999943    0.293909999999983    0.273440000000051  0.0000
  Ge     Ge        0.844295153222489    0.668595736455269    0.698827959877430  0.0000
  Ge     Ge        0.645556882226407    0.338568134747663    0.022210560641625  0.0000
  Si     Si        0.043471300976081    0.011981318663715    0.357815705256739  0.0000
  Si     Si        0.449232192540941    0.005867132780222    0.353668084699549  0.0000
  Si     Si        0.946455870231369    0.972159016209905    0.613291962647985  0.0000
  Si     Si        0.544498380770277    0.996986664395788    0.617904148693820  0.0000
  Si     Si        0.552488957052611    0.022640202890081    0.105729239509364  0.0000
  Si     Si        0.941151323893259    0.007455673220695    0.100524963208521  0.0000
  Si     Si        0.438320911898798    0.995274834804059    0.866802714907231  0.0000
  Si     Si        0.052958616122662    0.997729616034842    0.860348669694417  0.0000
  Si     Si        0.332790758232278    0.719060398835689    0.267724742002174  0.0000
  Si     Si        0.826893487940342    0.260985383396840    0.717015197035040  0.0000
  Si     Si        0.661764931455354    0.706590940196359    0.699442035426913  0.0000
  Si     Si        0.648326789790274    0.302125488594265    0.712732455898591  0.0000
  Si     Si        0.152235375590892    0.707129971223235    0.272051793520683  0.0000
  Si     Si        0.343421456774496    0.312779104890198    0.268914838419028  0.0000
  Si     Si        0.846680760074096    0.692269041794507    0.008366358820606  0.0000
  Si     Si        0.340060108732781    0.310095325587920    0.963405879595178  0.0000
  Si     Si        0.150133417282501    0.690515575896277    0.968389343333581  0.0000
  Si     Si        0.330165476600480    0.709212878162289    0.963762363516999  0.0000
  Si     Si        0.159988993519860    0.287191798503478    0.963985470846697  0.0000
  Si     Si        0.666590964325940    0.739621844610595    0.005176434313874  0.0000
  Si     Si        0.827324778655909    0.297486994273086    0.023890106686036  0.0000
  O3     O3        0.101618889040431    0.173336158768791    0.370789148961428  0.0000
  O2     O2        0.384721774839537    0.853687693109954    0.351444992782344  0.0000
  O2     O2        0.873705158802226    0.102435551394741    0.646351968113802  0.0000
  O2     O2        0.605643964137467    0.833794401976665    0.617871581375237  0.0000
  O3     O3        0.911729208432192    0.778671184733340    0.608868079422545  0.0000
  O2     O2        0.589824788616258    0.180486398443960    0.629117529466690  0.0000
  O2     O2        0.096658629071966    0.835010270109546    0.357998071479083  0.0000
  O2     O2        0.406828728231540    0.196262884475010    0.344975959411889  0.0000
  O2     O2        0.981830392209989    0.014940253637182    0.473942250633073  0.0000
  O2     O2        0.497381535373025    0.994648908273836    0.484858944294401  0.0000
  O2     O2        0.996436221467901    0.027084330060478    0.223726401816931  0.0000
  O2     O2        0.510038927677241    0.972894203646102    0.237233408491442  0.0000
  O2     O2        0.015381592105093    0.995457860491140    0.718208917992668  0.0000
  O2     O2        0.481770070823970    0.976205027099636    0.731036102865394  0.0000
  O3     O3        0.578572691233514    0.223593256486190    0.110257763788609  0.0000
  O2     O2        0.901719713164191    0.815904220482281    0.097953181260155  0.0000
  O2     O2        0.395829226495142    0.185665359781306    0.875586829871453  0.0000
  O2     O2        0.093911592675986    0.808257287393330    0.880706460619724  0.0000
  O2     O2        0.375147536202014    0.841207441767007    0.873018125920071  0.0000
  O2     O2        0.115070351264047    0.154632147458111    0.866707277754792  0.0000
  O2     O2        0.630932459525912    0.904193719261348    0.086822915545656  0.0000
  O2     O2        0.875568451942160    0.160820416738894    0.110028222401736  0.0000
  O2     O2        0.497920165173179    0.972614544265524    0.984326985405513  0.0000
  O2     O2        0.988107752563415    0.037889774865008    0.968696417221534  0.0000
  O3     O3        0.131940089920005    0.509669435179121    0.300214232665490  0.0000
  O2     O2        0.359875340909646    0.519436795690552    0.295228789978934  0.0000
  O3     O3        0.863319881297774    0.445713482446658    0.682208504635807  0.0000
  O2     O2        0.630374532225014    0.507250364989612    0.686643413938187  0.0000
  O3     O3        0.257293528157442    0.268552635422987    0.314737983868685  0.0000
  O2     O2        0.242516100578677    0.745153418010007    0.308244194653613  0.0000
  O2     O2        0.737052965799276    0.256147003260884    0.669197047093920  0.0000
  O3     O3        0.749747932068961    0.711653129808916    0.648840779163517  0.0000
  O3     O3        0.149053254518515    0.230945016720732    0.111625596991034  0.0000
  O2     O2        0.341991082356261    0.761633649780798    0.115499629263568  0.0000
  O2     O2        0.826404580331232    0.235803739571428    0.872367229397891  0.0000
  O2     O2        0.661752337208957    0.771129343475036    0.850507652804884  0.0000
  O3     O3        0.859245900857585    0.736631243714228    0.858813981606029  0.0000
  O3     O3        0.635917407764949    0.263113540244804    0.863150057808522  0.0000
  O2     O2        0.138623185606501    0.746862644682587    0.119420645130292  0.0000
  O2     O2        0.352100802420398    0.266488274502804    0.114900663320506  0.0000
  O3     O3        0.623666126096980    0.560334026569828    0.036887533360175  0.0000
  O2     O2        0.867823521605124    0.488838277706341    0.035643974423072  0.0000
  O2     O2        0.362536207655497    0.511071515658214    0.937070676943550  0.0000
  O2     O2        0.127813451570364    0.486530447177076    0.946914406795921  0.0000
  O3     O3        0.739961867438477    0.306870769115993    0.076015477256317  0.0000
  O2     O2        0.756664854452245    0.724865441179895    0.046948208014016  0.0000
  O2     O2        0.250724470001635    0.277428649025582    0.924890344663604  0.0000
  O2     O2        0.239148440705986    0.720520852986464    0.926822484425258  0.0000
