data_c00003.vasp
_audit_creation_method             Generated by GULP
_audit_author_name                 Salvador R. G. Balestra
_symmetry_space_group_name_H-M     'P 1             '
_symmetry_Int_Tables_number        1

loop_
_symmetry_equiv_pos_site_id
_symmetry_equiv_pos_as_xyz
_cell_length_a                        9.1147
_cell_length_b                        7.6467
_cell_length_c                       10.3772
_cell_angle_alpha                   90.0014
_cell_angle_beta                   109.6395
_cell_angle_gamma                   89.9984

loop_
_atom_site_label
_atom_site_type_symbol
_atom_site_fract_x
_atom_site_fract_y
_atom_site_fract_z
_atom_site_charge
  Ge     Ge        0.879680000000008    0.000000000000000    0.350159999999960  0.0000
  Si     Si        0.308568458619533    0.299603877706676    0.321809548309930  0.0000
  Si     Si        0.700961471529942    0.297931511704075    0.707685403530820  0.0000
  Si     Si        0.700991595428943    0.702088139055621    0.707691071101341  0.0000
  Si     Si        0.308610012904036    0.700493315311920    0.321814107495093  0.0000
  Si     Si        0.342299886769422    0.300931789435807    0.632348712969285  0.0000
  Si     Si        0.665842557221977    0.296981937312209    0.400141313218146  0.0000
  Si     Si        0.665883886702956    0.703004913937670    0.400148696772630  0.0000
  Si     Si        0.342330962720263    0.699183875073097    0.632352587908497  0.0000
  Si     Si        0.133880783857588    0.000055067368773    0.656215485093146  0.0000
  Si     Si        0.088236172386789    0.000039562390346    0.162755984435042  0.0000
  Si     Si        0.923710559992906    0.000018754805209    0.846035582769987  0.0000
  O2     O2        0.296364112140020    0.265741418425204    0.470771390897966  0.0000
  O2     O2        0.712603259360215    0.246964163734117    0.560588814952070  0.0000
  O2     O2        0.712639174156674    0.753033381295385    0.560594857544267  0.0000
  O2     O2        0.296408554338196    0.734372932296403    0.470776764681008  0.0000
  O2     O2        0.264079746270820    0.500053630534141    0.277387314334489  0.0000
  O2     O2        0.748699513990443    0.500005036007018    0.743138733455759  0.0000
  O2     O2        0.482878250316745    0.258745933433800    0.325376521466071  0.0000
  O2     O2        0.525707566241966    0.266669357627387    0.706355231849860  0.0000
  O2     O2        0.525742719669715    0.733401546048501    0.706364536050556  0.0000
  O2     O2        0.482926618923293    0.741293290714095    0.325379194318232  0.0000
  O2     O2        0.189556340342032    0.174068979169882    0.214905709371927  0.0000
  O2     O2        0.816518766280198    0.173173280133880    0.820342682017522  0.0000
  O2     O2        0.816570599789669    0.826828574916707    0.820348331968508  0.0000
  O2     O2        0.189631756637309    0.826059973829309    0.214912999629739  0.0000
  O2     O2        0.301134435542943    0.500064951489609    0.658530463757671  0.0000
  O2     O2        0.701483829348024    0.499986647323402    0.385746857543416  0.0000
  O2     O2        0.243214528956007    0.172334209399109    0.692974985118374  0.0000
  O3     O3        0.766121717169596    0.184229785904689    0.333838882676834  0.0000
  O3     O3        0.766205087152811    0.815711247810875    0.333866290793729  0.0000
  O2     O2        0.243261460184290    0.827809080948530    0.692980866856689  0.0000
  O3     O3        0.036315539040978    0.000045698390723    0.497159074614067  0.0000
  O3     O3        0.939946953598892    0.000001013195143    0.210251673764607  0.0000
  O2     O2        0.024816101162709    0.000039100538911    0.747076352626458  0.0000
  O2     O2        0.037692631314674    0.000034149153859    0.999943040005207  0.0000
