data_c00001.vasp
_audit_creation_method             Generated by GULP
_audit_author_name                 Salvador R. G. Balestra
_symmetry_space_group_name_H-M     'P 1             '
_symmetry_Int_Tables_number        1

loop_
_symmetry_equiv_pos_site_id
_symmetry_equiv_pos_as_xyz
_cell_length_a                        9.0443
_cell_length_b                        7.6397
_cell_length_c                       10.3002
_cell_angle_alpha                   88.8293
_cell_angle_beta                   108.3245
_cell_angle_gamma                   89.5682

loop_
_atom_site_label
_atom_site_type_symbol
_atom_site_fract_x
_atom_site_fract_y
_atom_site_fract_z
_atom_site_charge
  Ge     Ge        0.313819999999964    0.296860000000038    0.309830000000034  0.0000
  Si     Si        0.696015645520716    0.264463000861162    0.705940764901730  0.0000
  Si     Si        0.709881172253539    0.664293444103190    0.713833141379603  0.0000
  Si     Si        0.331237743318106    0.703350876011489    0.323139521224985  0.0000
  Si     Si        0.338817517041403    0.279436408410891    0.625508012578418  0.0000
  Si     Si        0.679179929652308    0.278499989234092    0.396272785325499  0.0000
  Si     Si        0.691264578110464    0.676869815354662    0.406360018013488  0.0000
  Si     Si        0.351454441275590    0.683170592550164    0.631133769608391  0.0000
  Si     Si        0.898164552714789    0.978865958604044    0.375160038668121  0.0000
  Si     Si        0.139148374190087    0.978277874621985    0.675458464028878  0.0000
  Si     Si        0.100034898885171    0.996885735594204    0.173254545307727  0.0000
  Si     Si        0.922923633675476    0.962027589510837    0.859528013497028  0.0000
  O3     O3        0.303252293144952    0.232783127273981    0.468316168058609  0.0000
  O2     O2        0.696776273710283    0.227983361339399    0.553254349237307  0.0000
  O2     O2        0.723431698319645    0.714946065938676    0.565837570549288  0.0000
  O2     O2        0.321089812791541    0.741086580987441    0.473858008686027  0.0000
  O3     O3        0.264151903983964    0.514952356476800    0.277257630007946  0.0000
  O2     O2        0.754437865850256    0.460286860772552    0.749566435315865  0.0000
  O3     O3        0.501322203820046    0.260855539776820    0.306392737070572  0.0000
  O2     O2        0.520252952628751    0.242767570800003    0.708803305803687  0.0000
  O2     O2        0.534080690649629    0.700223746166013    0.714297234697287  0.0000
  O2     O2        0.509997108385652    0.710311986888653    0.325541812018941  0.0000
  O3     O3        0.179987735371433    0.183624497586393    0.185476022522152  0.0000
  O2     O2        0.807691550437614    0.127942044601339    0.810854331882435  0.0000
  O2     O2        0.828652106240784    0.782407217939496    0.824072644886586  0.0000
  O2     O2        0.238978764039940    0.853141862063937    0.218492984508596  0.0000
  O2     O2        0.297416222773969    0.483335549215779    0.638815245564290  0.0000
  O2     O2        0.736226258824483    0.477125114720995    0.386393433822132  0.0000
  O2     O2        0.235092217063291    0.157690582002921    0.690630973055546  0.0000
  O2     O2        0.788637853215902    0.151543077772750    0.343837324248349  0.0000
  O2     O2        0.793904757220439    0.805323764002890    0.346636015303694  0.0000
  O2     O2        0.253416220353017    0.809869423395894    0.696120652910966  0.0000
  O2     O2        0.007028284602820    0.975166881447498    0.530539782277152  0.0000
  O2     O2        0.995924034429914    0.981007094352079    0.272280248667289  0.0000
  O2     O2        0.063008109854896    0.970662724181930    0.795770132382679  0.0000
  O2     O2        0.992628833914098    0.963964912767404    0.021431106903414  0.0000
