data_c00002.vasp
_audit_creation_method             Generated by GULP
_audit_author_name                 Salvador R. G. Balestra
_symmetry_space_group_name_H-M     'P 1             '
_symmetry_Int_Tables_number        1

loop_
_symmetry_equiv_pos_site_id
_symmetry_equiv_pos_as_xyz
_cell_length_a                        9.0590
_cell_length_b                        7.6376
_cell_length_c                       10.3215
_cell_angle_alpha                   90.6829
_cell_angle_beta                   108.6206
_cell_angle_gamma                   89.0126

loop_
_atom_site_label
_atom_site_type_symbol
_atom_site_fract_x
_atom_site_fract_y
_atom_site_fract_z
_atom_site_charge
  Ge     Ge        0.331050000000005    0.296920000000000    0.607380000000035  0.0000
  Si     Si        0.312502562265391    0.285015568562345    0.293584914436651  0.0000
  Si     Si        0.695156880170281    0.274673688191905    0.688225971006410  0.0000
  Si     Si        0.707111737637504    0.674431530120039    0.686173974698886  0.0000
  Si     Si        0.325307579166816    0.688243446368538    0.295102428969165  0.0000
  Si     Si        0.669544505700243    0.269390458573950    0.376970002997951  0.0000
  Si     Si        0.684133529478859    0.669372951141725    0.378443748051843  0.0000
  Si     Si        0.347246011947722    0.703085395396410    0.602986069474706  0.0000
  Si     Si        0.888550053345092    0.969244719839231    0.348649199555776  0.0000
  Si     Si        0.128878598678683    0.995571229721524    0.649646852828667  0.0000
  Si     Si        0.098098784403599    0.984184169095532    0.154240796274069  0.0000
  Si     Si        0.921189073281107    0.973385121830110    0.837332302149436  0.0000
  O3     O3        0.300294014441918    0.236415619194011    0.439633876716866  0.0000
  O2     O2        0.691280756173341    0.227835030302129    0.534390993947965  0.0000
  O2     O2        0.719317351887314    0.717314435994440    0.537663361900133  0.0000
  O2     O2        0.315266044027098    0.742285555741575    0.443041418917845  0.0000
  O2     O2        0.268441395764053    0.489156385196083    0.260314121670456  0.0000
  O2     O2        0.754499025985738    0.473136414441280    0.724872896925508  0.0000
  O2     O2        0.488031770443348    0.249324954180429    0.291080388770248  0.0000
  O3     O3        0.524160904607278    0.256761465737845    0.698712136236646  0.0000
  O2     O2        0.531017535973230    0.707887675609599    0.684050156734937  0.0000
  O2     O2        0.502761223764479    0.705822295998910    0.296059971478637  0.0000
  O2     O2        0.194451002247304    0.163632233829364    0.180706225487055  0.0000
  O2     O2        0.814657801108816    0.145769742399348    0.791787341643838  0.0000
  O2     O2        0.819493427993801    0.799128626503626    0.798140921292325  0.0000
  O2     O2        0.215935592470357    0.817932332888671    0.183553039397329  0.0000
  O3     O3        0.283765696988114    0.514703441020173    0.619421232323859  0.0000
  O2     O2        0.725599313312350    0.465773282665988    0.361990186558122  0.0000
  O3     O3        0.204557853611342    0.184706482393902    0.667460219192158  0.0000
  O2     O2        0.770896347492321    0.135432449500863    0.319040712912425  0.0000
  O2     O2        0.790793963753446    0.789928745288035    0.319561582497437  0.0000
  O2     O2        0.266879431578712    0.853778951427267    0.666233823661563  0.0000
  O2     O2        0.998261554163928    0.974349228014199    0.503939571943691  0.0000
  O2     O2        0.986479031699131    0.975823142660441    0.246260279442989  0.0000
  O2     O2        0.057946446620107    0.965994757574432    0.770481440431995  0.0000
  O2     O2        0.993220973640462    0.978710125672867    0.998766089707550  0.0000
