data_c00003.vasp
_audit_creation_method             Generated by GULP
_audit_author_name                 Salvador R. G. Balestra
_symmetry_space_group_name_H-M     'P 1             '
_symmetry_Int_Tables_number        1

loop_
_symmetry_equiv_pos_site_id
_symmetry_equiv_pos_as_xyz
_cell_length_a                       17.1335
_cell_length_b                        7.6159
_cell_length_c                       10.2275
_cell_angle_alpha                   90.4845
_cell_angle_beta                    90.4616
_cell_angle_gamma                   89.8678

loop_
_atom_site_label
_atom_site_type_symbol
_atom_site_fract_x
_atom_site_fract_y
_atom_site_fract_z
_atom_site_charge
  Ge     Ge        0.160189999999943    0.293909999999983    0.273440000000051  0.0000
  Si     Si        0.044739616763980    0.004730970882051    0.354757106642188  0.0000
  Si     Si        0.450341328789396    0.012183252675795    0.359890476566113  0.0000
  Si     Si        0.944884703971732    0.990890688640590    0.610245243792216  0.0000
  Si     Si        0.546440959768622    0.003788219340147    0.623404305932601  0.0000
  Si     Si        0.555518738560286    0.006728107755835    0.113352877980716  0.0000
  Si     Si        0.942047363431636    0.001195295795813    0.096964097380723  0.0000
  Si     Si        0.439968672459859    0.001144878517046    0.874777598514712  0.0000
  Si     Si        0.053583314985493    0.997473094376750    0.856088421345736  0.0000
  Si     Si        0.335156323912327    0.720127618958304    0.264437369652826  0.0000
  Si     Si        0.832729771233511    0.286752586656279    0.706739271788590  0.0000
  Si     Si        0.659956313265533    0.711172449466185    0.706266480308757  0.0000
  Si     Si        0.840099305314813    0.690469606441962    0.706387820918103  0.0000
  Si     Si        0.653025347647680    0.307117419295936    0.705772549104305  0.0000
  Si     Si        0.154580443215922    0.706884821622076    0.267923488930136  0.0000
  Si     Si        0.343456413175041    0.314862175487959    0.270674330842225  0.0000
  Si     Si        0.652024353011007    0.315176887250082    0.010888032037396  0.0000
  Si     Si        0.843397430561692    0.689692279302395    0.011221357251781  0.0000
  Si     Si        0.340419648684963    0.311915892265821    0.963760527818789  0.0000
  Si     Si        0.151502114590673    0.691129431282873    0.963272216898564  0.0000
  Si     Si        0.331677873808804    0.709532016998363    0.959263282131564  0.0000
  Si     Si        0.160140970767781    0.288415405575229    0.962942330626515  0.0000
  Si     Si        0.662883833969437    0.713975505283303    0.011154658966054  0.0000
  Si     Si        0.832047522386961    0.291947487394089    0.012386110787712  0.0000
  O3     O3        0.100499375851930    0.171196844369615    0.370497079201789  0.0000
  O2     O2        0.388582566925519    0.854309168912746    0.345443238557644  0.0000
  O2     O2        0.886304363702362    0.155583519955496    0.623930771191779  0.0000
  O2     O2        0.606773210585586    0.840460893616477    0.620559518114959  0.0000
  O2     O2        0.897040670966555    0.810258755208188    0.622428870483880  0.0000
  O2     O2        0.595124390472805    0.184901263980603    0.621836342843927  0.0000
  O2     O2        0.100188520192499    0.833505773779422    0.353430886347426  0.0000
  O2     O2        0.406234592341627    0.198634565813604    0.348952158139748  0.0000
  O2     O2        0.981748991831044    0.993061759289770    0.467882036389979  0.0000
  O2     O2        0.489575216740442    0.996542549610839    0.500530850121771  0.0000
  O2     O2        0.998289384160143    0.021060447310189    0.219147826599068  0.0000
  O2     O2        0.519142257978301    0.997548330661710    0.255620717290189  0.0000
  O2     O2        0.015457759031658    0.001778226484797    0.713465476008464  0.0000
  O2     O2        0.493372852703862    0.991602706293429    0.749913529275823  0.0000
  O2     O2        0.595791403749579    0.196051908631016    0.096585507288944  0.0000
  O2     O2        0.899637360925244    0.812013432913701    0.098464220070989  0.0000
  O2     O2        0.395668033622685    0.187827224619160    0.877790250734021  0.0000
  O2     O2        0.095982283232786    0.809876578416092    0.873687880632356  0.0000
  O2     O2        0.377574164473873    0.843068576920477    0.867832908100086  0.0000
  O2     O2        0.114684210457027    0.157264908117390    0.865730471941676  0.0000
  O2     O2        0.619074903606675    0.852106914860772    0.102602403407725  0.0000
  O2     O2        0.877942990347943    0.156105726839688    0.102981793325797  0.0000
  O2     O2        0.489614847550098    0.974696950746254    0.005507536105619  0.0000
  O2     O2        0.988230097849899    0.026291478374276    0.963869876241776  0.0000
  O3     O3        0.133645723749357    0.509261958213535    0.298346770771061  0.0000
  O2     O2        0.360757541538861    0.520945311432184    0.296125957897340  0.0000
  O2     O2        0.857779128966714    0.486288350200515    0.676018321833839  0.0000
  O2     O2        0.634910604316119    0.510682468935261    0.676264119109200  0.0000
  O3     O3        0.257163712772654    0.268813539886273    0.316273802116039  0.0000
  O2     O2        0.244995308497168    0.747002996277366    0.303972661188985  0.0000
  O2     O2        0.742028334074855    0.260726979093268    0.667961601302309  0.0000
  O2     O2        0.750613449614536    0.736158674954179    0.669954410211987  0.0000
  O3     O3        0.148512766903450    0.232106657065721    0.111562453600183  0.0000
  O2     O2        0.344166384818051    0.760108145737062    0.111082784333721  0.0000
  O2     O2        0.843469062454482    0.245486260313411    0.859845682435470  0.0000
  O2     O2        0.648761075629332    0.758454206994192    0.859020291328974  0.0000
  O2     O2        0.856266673033115    0.731722010446360    0.858871611689552  0.0000
  O2     O2        0.639140761753890    0.268329878167069    0.858484886910827  0.0000
  O2     O2        0.140235570871709    0.746050326147064    0.114259993095002  0.0000
  O2     O2        0.351623954334467    0.270684746764791    0.116716714909812  0.0000
  O2     O2        0.631245459855149    0.518417663662027    0.039116385733060  0.0000
  O2     O2        0.864266125146259    0.487684478154707    0.041278198469080  0.0000
  O2     O2        0.363209381775440    0.512595155812091    0.933406407175851  0.0000
  O2     O2        0.128660066205716    0.487323938696178    0.943519634417558  0.0000
  O2     O2        0.741521796668750    0.278958396439463    0.049828952577481  0.0000
  O2     O2        0.753943423088792    0.727271585940893    0.047118455098553  0.0000
  O2     O2        0.250868987152377    0.278152147716507    0.924793896516244  0.0000
  O2     O2        0.240649853504310    0.721694912970451    0.921844715207482  0.0000
