data_c00093.vasp
_audit_creation_method             Generated by GULP
_audit_author_name                 Salvador R. G. Balestra
_symmetry_space_group_name_H-M     'P 1             '
_symmetry_Int_Tables_number        1

loop_
_symmetry_equiv_pos_site_id
_symmetry_equiv_pos_as_xyz
_cell_length_a                       17.5598
_cell_length_b                        7.8414
_cell_length_c                       10.3192
_cell_angle_alpha                   89.9230
_cell_angle_beta                    91.0101
_cell_angle_gamma                   88.2707

loop_
_atom_site_label
_atom_site_type_symbol
_atom_site_fract_x
_atom_site_fract_y
_atom_site_fract_z
_atom_site_charge
  Ge     Ge        0.052090000000021    0.000000000000000    0.372269999999958  0.0000
  Ge     Ge        0.442544018607584    0.954386990827235    0.362479623147482  0.0000
  Ge     Ge        0.946976371651728    0.956609228820182    0.624150618059942  0.0000
  Ge     Ge        0.544250224298570    0.018310203119081    0.616925415423691  0.0000
  Ge     Ge        0.552811579670511    0.018240936991707    0.124892887958345  0.0000
  Ge     Ge        0.940885531478251    0.953996158291038    0.123123275629734  0.0000
  Ge     Ge        0.445245855226341    0.953598916508324    0.873284558511962  0.0000
  Ge     Ge        0.144799327933425    0.316172670288281    0.256265132752945  0.0000
  Ge     Ge        0.354014097626651    0.632994497436122    0.249644809280103  0.0000
  Ge     Ge        0.823536068070263    0.241230622248792    0.699103434773066  0.0000
  Ge     Ge        0.668941542512506    0.733138098351546    0.692127035515567  0.0000
  Ge     Ge        0.848485540295212    0.645330995076855    0.695149279832378  0.0000
  Ge     Ge        0.642863065387081    0.329515014701087    0.693143704748053  0.0000
  Ge     Ge        0.171337467044339    0.713151147991097    0.262660963894013  0.0000
  Ge     Ge        0.641613814724347    0.333864273581427    0.008519460163847  0.0000
  Ge     Ge        0.319363503146123    0.243780956756775    0.938971609760975  0.0000
  Ge     Ge        0.161886000468392    0.725023714366456    0.948977808849797  0.0000
  Ge     Ge        0.344006150251781    0.645553951266491    0.936894369718468  0.0000
  Ge     Ge        0.139002095912369    0.323261513189914    0.940421278263660  0.0000
  Ge     Ge        0.671867478100545    0.733619447953159    0.007113387116336  0.0000
  Ge     Ge        0.824272150410553    0.252003037433831    0.012245008977883  0.0000
  Si     Si        0.042671822728927    0.015375244588992    0.879950814473952  0.0000
  Si     Si        0.323894076987156    0.240778189484865    0.247151021915170  0.0000
  Si     Si        0.849689770578286    0.646967826976240    0.003155074081089  0.0000
  O1     O1        0.080023885133268    0.202852454522552    0.338726108927977  0.0000
  O1     O1        0.418782858936955    0.745967306647471    0.338441657944275  0.0000
  O1     O1        0.872439289840941    0.101684755263836    0.601787226904399  0.0000
  O1     O1        0.617430348094952    0.870587277657602    0.594021040351152  0.0000
  O1     O1        0.914371281263183    0.753209685617253    0.609367851124506  0.0000
  O1     O1        0.578436144215985    0.219670694309570    0.601003074059909  0.0000
  O1     O1        0.129254915383322    0.864043230058771    0.358927375288841  0.0000
  O3     O3        0.366088532528729    0.090426796521928    0.326914168126952  0.0000
  O1     O1        0.022589005083123    0.994768172886291    0.530642179941316  0.0000
  O1     O1        0.465746526983295    0.980939528386247    0.523987031160834  0.0000
  O1     O1        0.974909689411880    0.942113571716089    0.279740570347876  0.0000
  O1     O1        0.523773238652489    0.004836056086845    0.282638690308525  0.0000
  O3     O3        0.972342656055227    0.978259311499301    0.787456404218354  0.0000
  O1     O1        0.519533477059459    0.995175110475042    0.777805026659663  0.0000
  O1     O1        0.575253449391228    0.225647348673584    0.092657483566825  0.0000
  O3     O3        0.910797563844754    0.752026332256362    0.084134855165905  0.0000
  O1     O1        0.372247009839992    0.103923387214284    0.850917894411070  0.0000
  O3     O3        0.111010160630348    0.876178045315264    0.859284609035804  0.0000
  O1     O1        0.405877506293027    0.757961325384735    0.846154117286398  0.0000
  O3     O3        0.073399572221312    0.204356908767429    0.855482836794053  0.0000
  O1     O1        0.632736921327941    0.890214200502639    0.100986443167129  0.0000
  O1     O1        0.870138106452764    0.109058881530678    0.114137563287940  0.0000
  O1     O1        0.477224349181792    0.953755199755543    0.032202490303080  0.0000
  O3     O3        0.017084533222649    0.007134376429756    0.029373024043577  0.0000
  O1     O1        0.154063830560137    0.513609783646638    0.323537219419049  0.0000
  O3     O3        0.343762049548860    0.425716427814938    0.305830824010403  0.0000
  O1     O1        0.836444406204272    0.444415051561409    0.638666522361636  0.0000
  O1     O1        0.656270937482755    0.528731655192569    0.634047313466680  0.0000
  O3     O3        0.233775512688743    0.212652842035268    0.251704916202840  0.0000
  O1     O1        0.267424348107167    0.739370708588698    0.258522529470258  0.0000
  O1     O1        0.727267145333782    0.210111439019175    0.697510149014424  0.0000
  O1     O1        0.764917781838146    0.766537360932535    0.688707844886349  0.0000
  O1     O1        0.113710519831635    0.344305364013819    0.099458819010202  0.0000
  O1     O1        0.381523473405793    0.626861519194634    0.092066860045338  0.0000
  O1     O1        0.855726295333690    0.223007792096599    0.857489050385675  0.0000
  O1     O1        0.638373169724538    0.749509433468697    0.849860938359363  0.0000
  O3     O3        0.876923950304438    0.622629897883892    0.856516025853606  0.0000
  O1     O1        0.611705568934951    0.350061409757633    0.849539630060824  0.0000
  O1     O1        0.133967091083961    0.731973622802229    0.107698747210551  0.0000
  O3     O3        0.351644162670327    0.236053689689589    0.099322788527605  0.0000
  O1     O1        0.650488330207799    0.536688703785888    0.067998086780854  0.0000
  O3     O3        0.839417741490891    0.460514321841712    0.063702575820784  0.0000
  O1     O1        0.330867091813549    0.446173034067399    0.877422189905475  0.0000
  O1     O1        0.146371535433267    0.525866454080501    0.882244938522896  0.0000
  O1     O1        0.727973952964135    0.224179798368553    0.015635647079137  0.0000
  O3     O3        0.769722994358409    0.753694726955063    0.002999222239083  0.0000
  O1     O1        0.224087604758562    0.208310133984471    0.933397033516510  0.0000
  O1     O1        0.257921836120326    0.757306931918318    0.944739728013363  0.0000
