data_c00070.vasp
_audit_creation_method             Generated by GULP
_audit_author_name                 Salvador R. G. Balestra
_symmetry_space_group_name_H-M     'P 1             '
_symmetry_Int_Tables_number        1

loop_
_symmetry_equiv_pos_site_id
_symmetry_equiv_pos_as_xyz
_cell_length_a                       17.6862
_cell_length_b                        7.8618
_cell_length_c                       10.1648
_cell_angle_alpha                   89.3881
_cell_angle_beta                    89.9566
_cell_angle_gamma                   91.6450

loop_
_atom_site_label
_atom_site_type_symbol
_atom_site_fract_x
_atom_site_fract_y
_atom_site_fract_z
_atom_site_charge
  Ge     Ge        0.052090000000021    0.000000000000000    0.372269999999958  0.0000
  Ge     Ge        0.449925377243455    0.057248386426995    0.330432146100675  0.0000
  Ge     Ge        0.942108693477596    0.057123326420645    0.619877874771272  0.0000
  Ge     Ge        0.560647846838439    0.016656102184340    0.574288357653501  0.0000
  Ge     Ge        0.547683794958335    0.998857759612096    0.069743738807593  0.0000
  Ge     Ge        0.946881893722736    0.057742708110292    0.120801151955308  0.0000
  Ge     Ge        0.444893343042401    0.061444553996022    0.813650633141401  0.0000
  Ge     Ge        0.050180727347324    0.000692119607195    0.868301623951232  0.0000
  Ge     Ge        0.173487277788151    0.289210469233607    0.256296132735905  0.0000
  Ge     Ge        0.327236453235684    0.772988556286836    0.254835651357125  0.0000
  Ge     Ge        0.848476720361929    0.377754954136269    0.680097221920270  0.0000
  Ge     Ge        0.146829672566477    0.691038357415727    0.254119483022888  0.0000
  Ge     Ge        0.353731636874322    0.370395986705392    0.256143265223977  0.0000
  Ge     Ge        0.672135864842467    0.286881728688263    0.997270478739371  0.0000
  Ge     Ge        0.825810514945511    0.769300522633732    0.000791664528842  0.0000
  Ge     Ge        0.353649072647690    0.370809130172675    0.936851894979179  0.0000
  Ge     Ge        0.146081019856878    0.686557035451968    0.934310990740718  0.0000
  Ge     Ge        0.325465453846468    0.774443148492779    0.935485724105904  0.0000
  Ge     Ge        0.173393852378543    0.286927174997961    0.937623366012583  0.0000
  Ge     Ge        0.647093496578051    0.693075408303987    0.003854987927704  0.0000
  Ge     Ge        0.852204099026754    0.364819010987198    0.998584463069531  0.0000
  Si     Si        0.649880457370660    0.702505159430132    0.693949951514982  0.0000
  Si     Si        0.826741251652009    0.765600211132393    0.688768053765707  0.0000
  Si     Si        0.668699011805922    0.313302619433427    0.687183822829347  0.0000
  O1     O1        0.126758057127054    0.141414293752852    0.353117670120696  0.0000
  O1     O1        0.377093042419326    0.909809453404405    0.354114092862745  0.0000
  O1     O1        0.905736821304557    0.253716059363243    0.587460022105126  0.0000
  O3     O3        0.599072693805359    0.819532546605420    0.602950953157356  0.0000
  O3     O3        0.866403379860779    0.911857890856925    0.601739535018004  0.0000
  O3     O3        0.626206410496937    0.181447664096705    0.592553370842339  0.0000
  O1     O1        0.080694810570791    0.797851283786480    0.341719642239071  0.0000
  O1     O1        0.415968700939964    0.257537756693527    0.350357533395379  0.0000
  O1     O1        0.020541720921188    0.009656872581459    0.533160098179890  0.0000
  O1     O1        0.531539164124634    0.017647417687087    0.412532355180790  0.0000
  O1     O1        0.973634295900151    0.051770935102494    0.283030912343554  0.0000
  O1     O1        0.472471733714216    0.040587976567378    0.164604089405633  0.0000
  O1     O1        0.971627520427972    0.049447389363438    0.781819621977319  0.0000
  O1     O1        0.477190524475394    0.049116735024965    0.654083713662680  0.0000
  O1     O1        0.621390447137081    0.145382455382579    0.090667661235644  0.0000
  O1     O1        0.873140180012283    0.915776548607969    0.092987921703554  0.0000
  O1     O1        0.417912720833907    0.265614945932877    0.844841716892196  0.0000
  O1     O1        0.082653157857726    0.799254888166054    0.843340402071739  0.0000
  O1     O1        0.368900608108056    0.923342291757138    0.835929061116083  0.0000
  O1     O1        0.124044518075495    0.145078003443565    0.842799501890145  0.0000
  O1     O1        0.582131869405280    0.797725697977162    0.094168300433205  0.0000
  O1     O1        0.918567383587095    0.261185475717692    0.087742537301500  0.0000
  O1     O1        0.520429029130314    0.007431038353543    0.907435498030960  0.0000
  O1     O1        0.025053899760445    0.006708927173353    0.032723513056386  0.0000
  O1     O1        0.159430397876658    0.490272704286195    0.316636952725479  0.0000
  O1     O1        0.341128431905588    0.569449283541558    0.314733858086363  0.0000
  O3     O3        0.847318036007585    0.585744435984456    0.624903606942675  0.0000
  O2     O2        0.651277859981118    0.507948800431953    0.641975943161817  0.0000
  O1     O1        0.268836625364111    0.256156971964429    0.254521252919939  0.0000
  O1     O1        0.231653347978948    0.805625797140720    0.256824859059662  0.0000
  O3     O3        0.757972511439803    0.287939606853943    0.681188402954414  0.0000
  O2     O2        0.735768554834957    0.780423667797045    0.695443160684760  0.0000
  O1     O1        0.140650213788506    0.274661153953574    0.097477526997890  0.0000
  O1     O1        0.358770169699173    0.788701208511839    0.094246801349790  0.0000
  O1     O1        0.881874083129950    0.375254049478089    0.837768896102163  0.0000
  O3     O3        0.617491447603857    0.698464246180686    0.840035527100232  0.0000
  O3     O3        0.856908473367198    0.776397167377644    0.838075945272505  0.0000
  O3     O3        0.639937924381622    0.279178462323202    0.835161541660989  0.0000
  O1     O1        0.116394787086892    0.666497718694222    0.095267922572627  0.0000
  O1     O1        0.385301011016155    0.386969599530143    0.096089632319525  0.0000
  O1     O1        0.657099669687706    0.489253161599657    0.055281649924238  0.0000
  O1     O1        0.841072938735698    0.565729153962482    0.057414066945532  0.0000
  O1     O1        0.340783876532286    0.572502315723403    0.877396432073598  0.0000
  O1     O1        0.158608405270635    0.488482717307684    0.873826497521153  0.0000
  O1     O1        0.766825345903952    0.252455277259142    0.003780171501835  0.0000
  O1     O1        0.731511551304398    0.806475427083097    0.011010786758758  0.0000
  O1     O1        0.268790653878345    0.256189142312340    0.936937704419383  0.0000
  O1     O1        0.229980899231531    0.803847167672493    0.937512925722912  0.0000
