data_c00012.vasp
_audit_creation_method             Generated by GULP
_audit_author_name                 Salvador R. G. Balestra
_symmetry_space_group_name_H-M     'P 1             '
_symmetry_Int_Tables_number        1

loop_
_symmetry_equiv_pos_site_id
_symmetry_equiv_pos_as_xyz
_cell_length_a                       17.6591
_cell_length_b                        7.8485
_cell_length_c                       10.2713
_cell_angle_alpha                   89.6639
_cell_angle_beta                    89.9180
_cell_angle_gamma                   91.2232

loop_
_atom_site_label
_atom_site_type_symbol
_atom_site_fract_x
_atom_site_fract_y
_atom_site_fract_z
_atom_site_charge
  Ge     Ge        0.052090000000021    0.000000000000000    0.372269999999958  0.0000
  Ge     Ge        0.443111832692598    0.049874247462310    0.368759234102853  0.0000
  Ge     Ge        0.945936940569641    0.063651815569278    0.619898419384662  0.0000
  Ge     Ge        0.545496295040715    0.009485560911195    0.623336057286730  0.0000
  Ge     Ge        0.557450536778123    0.009474223047127    0.131226023468180  0.0000
  Ge     Ge        0.942707889263374    0.065261214817581    0.128131888335078  0.0000
  Ge     Ge        0.446808027035458    0.057388387105247    0.885845024986190  0.0000
  Ge     Ge        0.047074884007425    0.005666404213666    0.875859538165227  0.0000
  Ge     Ge        0.172504968349911    0.286305429548067    0.255359253054835  0.0000
  Ge     Ge        0.325456996186258    0.753551795902938    0.258940674199780  0.0000
  Ge     Ge        0.848334739813172    0.376704347249577    0.693772199811362  0.0000
  Ge     Ge        0.644407444015807    0.699149870852761    0.696139897430377  0.0000
  Ge     Ge        0.823127522180515    0.779922487325342    0.692846339938328  0.0000
  Ge     Ge        0.668619496480966    0.293025322951708    0.701360130745189  0.0000
  Ge     Ge        0.144426577624881    0.685973194479910    0.259434178090444  0.0000
  Ge     Ge        0.671348082478138    0.305473565298199    0.014976433126510  0.0000
  Ge     Ge        0.823587711472781    0.782081590897649    0.009090873142011  0.0000
  Ge     Ge        0.349391949247993    0.373724470589009    0.942967247641660  0.0000
  Ge     Ge        0.150164367942276    0.696397969493631    0.940644166067723  0.0000
  Ge     Ge        0.169877530691845    0.295601173978064    0.939825489240105  0.0000
  Ge     Ge        0.853054789622828    0.382501268290751    0.009985031518833  0.0000
  Si     Si        0.350169242238208    0.358360366107390    0.250768034176521  0.0000
  Si     Si        0.326650524445360    0.769781333248626    0.950485302360322  0.0000
  Si     Si        0.646460801548217    0.702380096254482    0.005586043488245  0.0000
  O1     O1        0.130503941006344    0.127388323174208    0.344856298153947  0.0000
  O1     O1        0.375019802272533    0.893164889205958    0.353604790692507  0.0000
  O1     O1        0.911114875388792    0.264664142731638    0.601260065971863  0.0000
  O1     O1        0.579877165310025    0.807312041800222    0.605515798485811  0.0000
  O1     O1        0.873899071449026    0.916437020406262    0.594456850563680  0.0000
  O1     O1        0.618633547728503    0.156484346593398    0.603868924343050  0.0000
  O1     O1        0.076518666173509    0.793505193004002    0.343142396030965  0.0000
  O3     O3        0.410272310539536    0.250029199697588    0.331032793317764  0.0000
  O1     O1        0.025305846779021    0.023653484264876    0.532508345180633  0.0000
  O1     O1        0.468839918981766    0.052654390090466    0.530998645897453  0.0000
  O1     O1        0.972769361241179    0.057032100634615    0.286978554655493  0.0000
  O1     O1        0.525648780212970    0.003173145752739    0.289587198888108  0.0000
  O1     O1        0.970277220602078    0.041911875158886    0.782741088419192  0.0000
  O1     O1        0.519935244738474    0.017912739526730    0.786004293088678  0.0000
  O1     O1        0.627339774765268    0.163639843766847    0.118250004160281  0.0000
  O1     O1        0.863884046407048    0.936617376393921    0.103762195361176  0.0000
  O1     O1        0.412126101872418    0.258606681593149    0.855924696115424  0.0000
  O1     O1        0.088664851700770    0.811947205451101    0.850392646916867  0.0000
  O3     O3        0.373569597748766    0.906871221364614    0.866743554078369  0.0000
  O1     O1        0.116901017917622    0.158234517967012    0.848783851983050  0.0000
  O3     O3        0.587677667804294    0.808226912503167    0.089501245940669  0.0000
  O1     O1        0.919669015179660    0.272551939624702    0.094431086040928  0.0000
  O1     O1        0.478452874842591    0.057937342005953    0.043656766708517  0.0000
  O1     O1        0.017801281066357    0.001590948098691    0.036330234287590  0.0000
  O1     O1        0.152190942196411    0.482146511544880    0.318999861469263  0.0000
  O3     O3        0.339822739900816    0.545122624336608    0.310890023326075  0.0000
  O1     O1        0.834730672299574    0.576054898244877    0.633580179399418  0.0000
  O1     O1        0.655927464179580    0.497327012539119    0.642033142053860  0.0000
  O3     O3        0.269449128894796    0.257893311481510    0.251973307686830  0.0000
  O1     O1        0.230858787303885    0.790947160775903    0.271309815399696  0.0000
  O1     O1        0.764306757506910    0.259587486238988    0.700161238763923  0.0000
  O1     O1        0.728009947509589    0.816943318013568    0.690285303088857  0.0000
  O1     O1        0.138850133125494    0.277210082196573    0.098848806008886  0.0000
  O3     O3        0.355761629319407    0.777486306153912    0.099350615266979  0.0000
  O1     O1        0.881360926091193    0.398352586466977    0.850318901820300  0.0000
  O3     O3        0.616864596397951    0.681992177983470    0.858610948740795  0.0000
  O1     O1        0.855362042209365    0.795205817302659    0.851115293036451  0.0000
  O1     O1        0.637112614748244    0.275223225740221    0.860342012743630  0.0000
  O1     O1        0.119196448488891    0.673958781987684    0.098694602501154  0.0000
  O3     O3        0.378917181781136    0.380893175207961    0.103708914421195  0.0000
  O3     O3        0.657190065249596    0.514473412922054    0.064792395519851  0.0000
  O1     O1        0.845015641406038    0.584501198339815    0.070656153855200  0.0000
  O3     O3        0.339354297856067    0.581217960043502    0.891365677835747  0.0000
  O1     O1        0.157727207489210    0.498016455091485    0.877856711441541  0.0000
  O1     O1        0.767037090181887    0.275257097307430    0.016290526759720  0.0000
  O3     O3        0.726394502461467    0.805718204504125    0.004980188180209  0.0000
  O1     O1        0.264956967408809    0.261684434436380    0.935796717717748  0.0000
  O3     O3        0.237427821761775    0.804333597219233    0.948025622227376  0.0000
