data_c00087.vasp
_audit_creation_method             Generated by GULP
_audit_author_name                 Salvador R. G. Balestra
_symmetry_space_group_name_H-M     'P 1             '
_symmetry_Int_Tables_number        1

loop_
_symmetry_equiv_pos_site_id
_symmetry_equiv_pos_as_xyz
_cell_length_a                       17.6039
_cell_length_b                        7.8285
_cell_length_c                       10.3058
_cell_angle_alpha                   88.7030
_cell_angle_beta                    90.5553
_cell_angle_gamma                   91.1689

loop_
_atom_site_label
_atom_site_type_symbol
_atom_site_fract_x
_atom_site_fract_y
_atom_site_fract_z
_atom_site_charge
  Ge     Ge        0.052090000000021    0.000000000000000    0.372269999999958  0.0000
  Ge     Ge        0.442037316776505    0.052560842811970    0.365071811602657  0.0000
  Ge     Ge        0.949089386634772    0.064783552053302    0.623907268338033  0.0000
  Ge     Ge        0.546917269840791    0.013667499813007    0.618486068115048  0.0000
  Ge     Ge        0.554271847181311    0.998468934124737    0.128161698985268  0.0000
  Ge     Ge        0.942391701167138    0.056564257215223    0.122770467308116  0.0000
  Ge     Ge        0.447538673829374    0.069444013305520    0.876586126685100  0.0000
  Ge     Ge        0.172685330812798    0.285671149415004    0.259294242412715  0.0000
  Ge     Ge        0.324893779784570    0.758273660102822    0.258008274389634  0.0000
  Ge     Ge        0.850674436460855    0.376533900064330    0.694878924342381  0.0000
  Ge     Ge        0.644876991446600    0.697257886544032    0.693646931627235  0.0000
  Ge     Ge        0.824986064117483    0.781263888126841    0.697799179234516  0.0000
  Ge     Ge        0.671660649212091    0.292373542833754    0.694233876957087  0.0000
  Ge     Ge        0.142559959065381    0.684295666897673    0.261579004575001  0.0000
  Ge     Ge        0.673716555924783    0.284226661557611    0.009590453718016  0.0000
  Ge     Ge        0.825797298764113    0.763949898882697    0.011546941350720  0.0000
  Ge     Ge        0.343252593447823    0.376316405409375    0.934551857917838  0.0000
  Ge     Ge        0.142423738648172    0.698747662905824    0.946625271026237  0.0000
  Ge     Ge        0.323399060574418    0.779430865719252    0.945997588510957  0.0000
  Ge     Ge        0.164188861763143    0.295294043211442    0.942995578562119  0.0000
  Ge     Ge        0.644085104083338    0.685842353046004    0.009961592292436  0.0000
  Si     Si        0.045315389015261    0.007667411538358    0.878971194831329  0.0000
  Si     Si        0.348928752306071    0.364211332508674    0.245922122982769  0.0000
  Si     Si        0.850695413627006    0.367621075679409    0.003397032024589  0.0000
  O1     O1        0.132214776020736    0.124608083170734    0.349367587422206  0.0000
  O1     O1        0.372564137054950    0.897761345408803    0.356313558192214  0.0000
  O1     O1        0.916742805217364    0.269715985606376    0.608636863411475  0.0000
  O1     O1        0.580480884298505    0.810833219338668    0.602174934415741  0.0000
  O1     O1        0.874734104627591    0.922717919896807    0.600753069472813  0.0000
  O1     O1        0.620941936334137    0.158271415718975    0.596491918825641  0.0000
  O1     O1        0.075907310987494    0.792510164843346    0.345706972689764  0.0000
  O3     O3        0.413285316593846    0.254438157909302    0.317130535023155  0.0000
  O1     O1        0.024846671384766    0.023344392955511    0.530843351808250  0.0000
  O1     O1        0.469348527290298    0.059414698305548    0.526206155997591  0.0000
  O1     O1        0.975712899455024    0.063214911463861    0.279548169366049  0.0000
  O1     O1        0.523717319161835    0.002432414749182    0.285798824095618  0.0000
  O3     O3        0.974158429806059    0.040204532751754    0.787475961662356  0.0000
  O1     O1        0.521704223080530    0.030506897734687    0.779989094862290  0.0000
  O1     O1        0.633590565740382    0.127559083996669    0.105294825966391  0.0000
  O1     O1        0.872700646606281    0.901522306077001    0.112732586102879  0.0000
  O1     O1        0.410402136412052    0.270488603904497    0.852394495292646  0.0000
  O3     O3        0.080054582989013    0.822041599945774    0.856108644153836  0.0000
  O1     O1        0.373981958693745    0.923762019217651    0.854231162676726  0.0000
  O3     O3        0.110394942434412    0.152949119964758    0.854278332343590  0.0000
  O1     O1        0.577494910837364    0.791986341243089    0.094440348414163  0.0000
  O3     O3        0.911703303872938    0.260231692414998    0.084796793991457  0.0000
  O1     O1        0.478945669058541    0.065067488351576    0.035387272914252  0.0000
  O3     O3        0.019692122673284    0.009626241414899    0.029017745131819  0.0000
  O1     O1        0.152999670448642    0.480534454795909    0.323488724172355  0.0000
  O3     O3        0.339774517882431    0.547826597790693    0.310199374239384  0.0000
  O1     O1        0.838572026644544    0.579420511898204    0.637617137115697  0.0000
  O1     O1        0.658851654307561    0.498867005212519    0.635557772041931  0.0000
  O3     O3        0.269899230618363    0.256787531958817    0.255106019564615  0.0000
  O1     O1        0.229146278773218    0.791018602114139    0.264330117588057  0.0000
  O1     O1        0.767415624372050    0.257038958358907    0.689871026509139  0.0000
  O1     O1        0.729181618512260    0.814956701013335    0.696171720634219  0.0000
  O1     O1        0.138264347508666    0.280003545062937    0.102971481598036  0.0000
  O1     O1        0.357657105670782    0.792636648619196    0.103250265306127  0.0000
  O3     O3        0.878413172305725    0.394903502223989    0.856303776055594  0.0000
  O1     O1        0.614473188808661    0.673580142932878    0.851137779084879  0.0000
  O1     O1        0.856997033385272    0.795342795900350    0.855961682595805  0.0000
  O1     O1        0.640754617913228    0.271842281979284    0.852440597195831  0.0000
  O1     O1        0.112552236955448    0.667852241562884    0.103418660532367  0.0000
  O3     O3        0.369105800715054    0.400135895033763    0.096568986874506  0.0000
  O1     O1        0.653415484390179    0.480974718002355    0.069794424479167  0.0000
  O3     O3        0.839887468720136    0.552922189070472    0.063273833570936  0.0000
  O1     O1        0.333653352454359    0.580915962028848    0.878641102158283  0.0000
  O1     O1        0.151070838151071    0.500877296961396    0.882663601033017  0.0000
  O3     O3        0.771320033223940    0.260981950681674    0.004462557209496  0.0000
  O1     O1        0.729880564237843    0.795381832673187    0.016380658258107  0.0000
  O1     O1        0.259490242813858    0.258921240281224    0.928977760515389  0.0000
  O1     O1        0.227544281880127    0.811405036493293    0.951138025507019  0.0000
