data_c00027.vasp
_audit_creation_method             Generated by GULP
_audit_author_name                 Salvador R. G. Balestra
_symmetry_space_group_name_H-M     'P 1             '
_symmetry_Int_Tables_number        1

loop_
_symmetry_equiv_pos_site_id
_symmetry_equiv_pos_as_xyz
_cell_length_a                       17.0624
_cell_length_b                        7.8202
_cell_length_c                       10.6777
_cell_angle_alpha                   85.1677
_cell_angle_beta                    91.1036
_cell_angle_gamma                   89.5126

loop_
_atom_site_label
_atom_site_type_symbol
_atom_site_fract_x
_atom_site_fract_y
_atom_site_fract_z
_atom_site_charge
  Ge     Ge        0.052090000000021    0.000000000000000    0.372269999999958  0.0000
  Ge     Ge        0.456571875835518    0.036921393488635    0.372285842955874  0.0000
  Ge     Ge        0.961423877312481    0.052087927724676    0.631471343157301  0.0000
  Ge     Ge        0.538680877339913    0.110506755180630    0.638065303931791  0.0000
  Ge     Ge        0.576918235873303    0.065910785744698    0.151179148897401  0.0000
  Ge     Ge        0.948009451914092    0.029488038312195    0.116069771290947  0.0000
  Ge     Ge        0.454549855674374    0.131264548148101    0.910878707155332  0.0000
  Ge     Ge        0.067793585412451    0.115253457223125    0.893671876460577  0.0000
  Ge     Ge        0.176742078509717    0.297433579624120    0.248884794727294  0.0000
  Ge     Ge        0.348650260849928    0.733441444256332    0.314810299541421  0.0000
  Ge     Ge        0.835551322495874    0.327231362324208    0.708760020013443  0.0000
  Ge     Ge        0.674312784589605    0.826493624914671    0.719986749094944  0.0000
  Ge     Ge        0.849804695784329    0.734912178058169    0.693124419382927  0.0000
  Ge     Ge        0.649503290843432    0.390023132302306    0.741122736528430  0.0000
  Ge     Ge        0.154513914303070    0.702422915397214    0.296337234297589  0.0000
  Ge     Ge        0.648994921745506    0.406270782977191    0.028329280677016  0.0000
  Ge     Ge        0.360014358584478    0.469206286118902    0.963167692835625  0.0000
  Ge     Ge        0.348712563007164    0.840653153406555    0.021512577755901  0.0000
  Ge     Ge        0.179550697342288    0.410752011597356    0.947177315200979  0.0000
  Ge     Ge        0.688830780611352    0.804837044688451    0.024039043235885  0.0000
  Ge     Ge        0.845304944845335    0.338038320834326    0.005575551145637  0.0000
  Si     Si        0.353680558803518    0.356131928688677    0.263929274500919  0.0000
  Si     Si        0.867021692738142    0.714897932234574    0.004485710893175  0.0000
  Si     Si        0.159559553844937    0.786996351212768    0.011444821814818  0.0000
  O1     O1        0.125762058816610    0.127013045280687    0.310872574030236  0.0000
  O1     O1        0.400146974982323    0.861924496537707    0.411351134951322  0.0000
  O1     O1        0.882798055409838    0.191443517839878    0.616613512523683  0.0000
  O1     O1        0.604602382456554    0.942042273175747    0.631964121466073  0.0000
  O1     O1        0.928007790652918    0.843993729033736    0.633215864099471  0.0000
  O1     O1        0.584601158186532    0.304410163958170    0.640240297691504  0.0000
  O1     O1        0.093191033147040    0.797520843994023    0.395766122580704  0.0000
  O3     O3        0.417588934634437    0.206557821301486    0.270283369954982  0.0000
  O1     O1        0.023635066350068    0.081286117790258    0.508310279642282  0.0000
  O1     O1        0.476848979945783    0.122360604544604    0.511299224622553  0.0000
  O1     O1        0.971921832459716    0.993625312271113    0.271351655354107  0.0000
  O1     O1        0.541473753779118    0.997008867169482    0.294931245205045  0.0000
  O1     O1        0.006883975338865    0.076096423959614    0.772239804471276  0.0000
  O1     O1        0.483880849005593    0.071979502448578    0.770828694179976  0.0000
  O1     O1        0.607544814145184    0.278465859708874    0.144972007974521  0.0000
  O3     O3        0.934883429810151    0.844272805846764    0.037890556132286  0.0000
  O1     O1        0.436213332772559    0.345874358046569    0.918077731145838  0.0000
  O3     O3        0.134425527356673    0.943435481160187    0.915464116022945  0.0000
  O1     O1        0.363807517188510    0.033414332495060    0.943330026903474  0.0000
  O1     O1        0.120870048543517    0.295889268665617    0.853025467013592  0.0000
  O1     O1        0.659441431187733    0.949471484890174    0.124688567262801  0.0000
  O1     O1        0.866656429434169    0.163344191285551    0.106572337026506  0.0000
  O1     O1        0.511482727764800    0.034308533171396    0.031013868190260  0.0000
  O1     O1        0.017993580857438    0.140478135900161    0.029443425637816  0.0000
  O1     O1        0.138411642472097    0.487995268224013    0.291618032035284  0.0000
  O3     O3        0.378057145413357    0.519533323953897    0.339150693921044  0.0000
  O1     O1        0.849012467316342    0.533706481346618    0.642707479098368  0.0000
  O1     O1        0.659890065204612    0.606771757206439    0.725138790107035  0.0000
  O3     O3        0.271895046765910    0.277892631456383    0.312547474818152  0.0000
  O1     O1        0.250018012942024    0.741741968842738    0.338386982230138  0.0000
  O1     O1        0.736969328635534    0.286576295368625    0.717106379800992  0.0000
  O1     O1        0.765188560631780    0.851145906194315    0.655236536664335  0.0000
  O1     O1        0.179237186154703    0.288315748490230    0.089694332401983  0.0000
  O1     O1        0.379688239673647    0.837496151275825    0.175907335673341  0.0000
  O1     O1        0.875783989892873    0.295419085940550    0.858496856618554  0.0000
  O1     O1        0.673578642027461    0.888816334770151    0.871020888710019  0.0000
  O3     O3        0.847967290584676    0.707194351599842    0.856347488797559  0.0000
  O1     O1        0.610498332070583    0.340404497708727    0.888661160848074  0.0000
  O3     O3        0.125139849272469    0.804569257775221    0.149520773280167  0.0000
  O3     O3        0.337373483641719    0.440132183320010    0.122202802184952  0.0000
  O1     O1        0.635718087930549    0.618426627763914    0.050722319064994  0.0000
  O3     O3        0.890256337210504    0.521938055796748    0.055401549311215  0.0000
  O1     O1        0.390212711301560    0.677354295057111    0.943550393687337  0.0000
  O3     O3        0.134600150913690    0.607958803691535    0.958778676710963  0.0000
  O1     O1        0.747589467514139    0.389415649950187    0.996597801653510  0.0000
  O3     O3        0.787192835039637    0.777608603613924    0.065215415136695  0.0000
  O1     O1        0.272574831979066    0.429777270467416    0.888315667727731  0.0000
  O3     O3        0.253078963866446    0.767595161801970    0.035249295206748  0.0000
