data_c00039.vasp
_audit_creation_method             Generated by GULP
_audit_author_name                 Salvador R. G. Balestra
_symmetry_space_group_name_H-M     'P 1             '
_symmetry_Int_Tables_number        1

loop_
_symmetry_equiv_pos_site_id
_symmetry_equiv_pos_as_xyz
_cell_length_a                       17.6789
_cell_length_b                        7.8488
_cell_length_c                       10.1884
_cell_angle_alpha                   89.8720
_cell_angle_beta                    89.9630
_cell_angle_gamma                   91.2882

loop_
_atom_site_label
_atom_site_type_symbol
_atom_site_fract_x
_atom_site_fract_y
_atom_site_fract_z
_atom_site_charge
  Ge     Ge        0.052090000000021    0.000000000000000    0.372269999999958  0.0000
  Ge     Ge        0.443384430282452    0.060445894467777    0.377823648296109  0.0000
  Ge     Ge        0.947964601299953    0.062196064710200    0.624917397836313  0.0000
  Ge     Ge        0.552616361847977    0.016680014266921    0.628513581772489  0.0000
  Ge     Ge        0.551481895918711    0.002189980307913    0.129187846352308  0.0000
  Ge     Ge        0.947275733593067    0.056329487190828    0.118349229434223  0.0000
  Ge     Ge        0.447594504617098    0.063655387538290    0.879646809942181  0.0000
  Ge     Ge        0.055336686058488    0.004710753027475    0.871519108627054  0.0000
  Ge     Ge        0.170519102863975    0.297600923504850    0.308722025867050  0.0000
  Ge     Ge        0.326236263110161    0.763780402351130    0.310879748002268  0.0000
  Ge     Ge        0.856505340078312    0.376837220143570    0.739523601743646  0.0000
  Ge     Ge        0.644853154467105    0.701165364610585    0.747443465468433  0.0000
  Ge     Ge        0.824899249430755    0.777535254560325    0.744626800874327  0.0000
  Ge     Ge        0.674278622332229    0.300393974907639    0.739631930934484  0.0000
  Ge     Ge        0.672745908408360    0.293186898761350    0.056385215943626  0.0000
  Ge     Ge        0.354080104783230    0.373980787548331    0.001710586482113  0.0000
  Ge     Ge        0.147378504838870    0.693547088179645    0.996189460554556  0.0000
  Ge     Ge        0.326768351122274    0.776935065729990    0.992879689247632  0.0000
  Ge     Ge        0.175205001805895    0.289389265984107    0.990290198395500  0.0000
  Ge     Ge        0.652062649450067    0.692434479925083    0.068687783553472  0.0000
  Ge     Ge        0.853079330776485    0.374708171882812    0.055535151920178  0.0000
  Si     Si        0.149148248802155    0.689815599543636    0.309201467472149  0.0000
  Si     Si        0.347047167728938    0.373478313684134    0.315728900485210  0.0000
  Si     Si        0.827628812798516    0.767887774194999    0.057427938998624  0.0000
  O1     O1        0.120307432915803    0.155767977276267    0.402987707904457  0.0000
  O1     O1        0.374213267391110    0.906829059266069    0.407451427932021  0.0000
  O1     O1        0.921964563835922    0.269254849464145    0.648953332847400  0.0000
  O1     O1        0.576801411174791    0.811461616707795    0.666002403660250  0.0000
  O1     O1        0.870704789308420    0.934898598785742    0.659707478980825  0.0000
  O1     O1        0.629618807694766    0.150335004648404    0.644123904483539  0.0000
  O3     O3        0.091207588655416    0.800631591341655    0.392357428093496  0.0000
  O3     O3        0.405602199716676    0.261329285974047    0.396799073424383  0.0000
  O1     O1        0.973057246667287    0.030666381506285    0.463153500271357  0.0000
  O1     O1        0.522642515360730    0.028969042256031    0.467650527497885  0.0000
  O1     O1        0.024475216095177    0.013477002394349    0.210217570381394  0.0000
  O1     O1        0.472286454905058    0.043271963201638    0.216406334100091  0.0000
  O1     O1        0.027744849541976    0.007728454648434    0.709958882530222  0.0000
  O1     O1        0.475230160473145    0.075741471752880    0.718425731711218  0.0000
  O1     O1        0.622925627411461    0.151506830916785    0.151210781975684  0.0000
  O3     O3        0.875888386112162    0.902720144657457    0.141338858002465  0.0000
  O1     O1        0.425182872998219    0.266692899396870    0.929146912382702  0.0000
  O1     O1        0.078892688618261    0.800134125931529    0.914730583047062  0.0000
  O1     O1        0.371406126919748    0.925791021601096    0.896312138282225  0.0000
  O1     O1        0.131133956919076    0.141902714329168    0.892574820066081  0.0000
  O1     O1        0.590523736216327    0.806857295395743    0.160356907943462  0.0000
  O1     O1        0.911635047630869    0.254659983044803    0.150350835222798  0.0000
  O1     O1        0.524127505541838    0.996109195798788    0.966434041163998  0.0000
  O1     O1        0.976966856599667    0.063943718106129    0.957431712005565  0.0000
  O3     O3        0.155810046893111    0.501914950144221    0.368445736443424  0.0000
  O3     O3        0.339879444870374    0.560845977374949    0.375467725260643  0.0000
  O1     O1        0.844676460200473    0.580164335425851    0.681310758426956  0.0000
  O1     O1        0.656161233093429    0.502057062844758    0.682003175273760  0.0000
  O3     O3        0.267213915709181    0.268929108870479    0.314371310158410  0.0000
  O3     O3        0.229581404900003    0.792144576215401    0.308586755931592  0.0000
  O1     O1        0.769980856404776    0.271171614852303    0.737611112989605  0.0000
  O1     O1        0.729949010043933    0.812490162098737    0.737964696589288  0.0000
  O1     O1        0.142227525426001    0.270111873106653    0.148954212127341  0.0000
  O1     O1        0.357881740697780    0.792570623130801    0.152852328964185  0.0000
  O1     O1        0.887928225689742    0.388018419906507    0.898703262106257  0.0000
  O1     O1        0.621021063885464    0.674590806202527    0.909226256560200  0.0000
  O3     O3        0.855341507604931    0.776547134666580    0.906753586114393  0.0000
  O1     O1        0.639790238952031    0.280726394728278    0.897366112884645  0.0000
  O3     O3        0.121775939667665    0.667950947754381    0.159448129546898  0.0000
  O3     O3        0.374386593738497    0.402396220685888    0.166579144018863  0.0000
  O1     O1        0.660231719065911    0.491078751500923    0.126565928330634  0.0000
  O3     O3        0.840583626518554    0.577960605816259    0.114794367139384  0.0000
  O1     O1        0.344506863240410    0.573968721972684    0.937230907680715  0.0000
  O1     O1        0.158416774859792    0.492883770722893    0.934616322678494  0.0000
  O1     O1        0.768070124454836    0.263440736888185    0.049830960355318  0.0000
  O3     O3        0.738727764066590    0.803385560680897    0.063813175867666  0.0000
  O1     O1        0.270895030252578    0.258252520637284    0.986864327810232  0.0000
  O1     O1        0.231080119570692    0.808110066544855    0.986875752657191  0.0000
