data_c00074.vasp
_audit_creation_method             Generated by GULP
_audit_author_name                 Salvador R. G. Balestra
_symmetry_space_group_name_H-M     'P 1             '
_symmetry_Int_Tables_number        1

loop_
_symmetry_equiv_pos_site_id
_symmetry_equiv_pos_as_xyz
_cell_length_a                       17.5637
_cell_length_b                        7.8493
_cell_length_c                       10.3868
_cell_angle_alpha                   89.3599
_cell_angle_beta                    90.1559
_cell_angle_gamma                   91.6442

loop_
_atom_site_label
_atom_site_type_symbol
_atom_site_fract_x
_atom_site_fract_y
_atom_site_fract_z
_atom_site_charge
  Ge     Ge        0.052090000000021    0.000000000000000    0.372269999999958  0.0000
  Ge     Ge        0.449100394673572    0.051073536034746    0.334837304059822  0.0000
  Ge     Ge        0.951586132653736    0.051061629536046    0.630273600043510  0.0000
  Ge     Ge        0.549053041887002    0.990585562881518    0.591145630197683  0.0000
  Ge     Ge        0.549399175518150    0.978923201896129    0.079812991457075  0.0000
  Ge     Ge        0.945393132113587    0.045050812844392    0.122655676997443  0.0000
  Ge     Ge        0.440613216532430    0.045486320621444    0.833679785763253  0.0000
  Ge     Ge        0.172811785403635    0.287276449985155    0.261429291012548  0.0000
  Ge     Ge        0.324402516211951    0.769275798070935    0.256059626231568  0.0000
  Ge     Ge        0.852541956095365    0.363042283491810    0.698820696140717  0.0000
  Ge     Ge        0.645620991177147    0.680006299582672    0.707019789284833  0.0000
  Ge     Ge        0.826679043839408    0.765757231457809    0.704475490374095  0.0000
  Ge     Ge        0.672795319674222    0.278417079441732    0.700424496558467  0.0000
  Ge     Ge        0.143564288677872    0.686732187141582    0.257745336210903  0.0000
  Ge     Ge        0.354870492326607    0.367223194661331    0.260257280977087  0.0000
  Ge     Ge        0.674523237976934    0.267568505113274    0.013512067060434  0.0000
  Ge     Ge        0.828879075791271    0.747247730659166    0.016240507320338  0.0000
  Ge     Ge        0.351001434295231    0.362219346610512    0.950845557161482  0.0000
  Ge     Ge        0.146245145133176    0.685011156223875    0.945535972064171  0.0000
  Ge     Ge        0.167045758801704    0.287195226630668    0.950365324205589  0.0000
  Ge     Ge        0.647445242286873    0.664830859055314    0.021837648391120  0.0000
  Si     Si        0.050790550084201    0.995006151761767    0.881399722554099  0.0000
  Si     Si        0.325413591230923    0.758756067496337    0.951109469767824  0.0000
  Si     Si        0.851904286429378    0.351804973049770    0.005831989096311  0.0000
  O1     O1        0.129789055899855    0.134517330318837    0.356001378466027  0.0000
  O1     O1        0.372395715115301    0.910563963434521    0.351104933798795  0.0000
  O1     O1        0.919880166509780    0.255493956103062    0.616098400608745  0.0000
  O1     O1        0.577091607399029    0.787735778166757    0.624923189746588  0.0000
  O1     O1        0.875811453993020    0.910313761156722    0.610207897731652  0.0000
  O1     O1        0.623644861570871    0.132925969700288    0.609738142697337  0.0000
  O1     O1        0.075907497126259    0.794582544058465    0.339160061722712  0.0000
  O1     O1        0.417719050721805    0.254537482369956    0.352756655377684  0.0000
  O1     O1        0.024631089190384    0.010436158633540    0.530940818495213  0.0000
  O1     O1        0.523572098641294    0.002318021539352    0.430531607817773  0.0000
  O1     O1        0.976721376956366    0.060717847726974    0.278560716726562  0.0000
  O1     O1        0.476201170846380    0.028878440587035    0.175724909427275  0.0000
  O3     O3        0.980116590418702    0.026399146411002    0.790158084111030  0.0000
  O1     O1        0.468741077072446    0.038856432575053    0.675522191699669  0.0000
  O1     O1        0.627813751162960    0.114795107496091    0.101498353719627  0.0000
  O1     O1        0.876739852362496    0.885993689184285    0.115376258830969  0.0000
  O1     O1        0.412173855613989    0.250368714327221    0.858878255515496  0.0000
  O3     O3        0.086510709191165    0.811213375910460    0.856343057513315  0.0000
  O3     O3        0.366114990858939    0.900796023402740    0.861951347653065  0.0000
  O3     O3        0.117356582058330    0.138190037129032    0.860261820465098  0.0000
  O1     O1        0.581519718673818    0.776190975342116    0.105091509299402  0.0000
  O3     O3        0.913766311308184    0.245352374853103    0.082317927963630  0.0000
  O1     O1        0.519469834623592    0.996450414387523    0.921775457773769  0.0000
  O3     O3        0.023168932721175    0.996896091817924    0.029622974414308  0.0000
  O1     O1        0.157135137962392    0.487559539361476    0.321406910873151  0.0000
  O1     O1        0.342475592184373    0.567325384598700    0.315370756843714  0.0000
  O1     O1        0.841554678601943    0.565249066291500    0.642911600937242  0.0000
  O1     O1        0.658330429339040    0.482337510675416    0.643373345766869  0.0000
  O1     O1        0.268686800059103    0.256359899834140    0.256431600498486  0.0000
  O1     O1        0.228828263507129    0.802098524941655    0.261170112638538  0.0000
  O1     O1        0.768720421133152    0.244706269004829    0.692157853834894  0.0000
  O1     O1        0.730446004847868    0.797006053599730    0.702712030771925  0.0000
  O1     O1        0.136743215633063    0.275756594258523    0.107330472367767  0.0000
  O3     O3        0.356422123444789    0.774909349390326    0.097033472391251  0.0000
  O3     O3        0.878418972156624    0.381828677680792    0.859597638418095  0.0000
  O1     O1        0.618455699965363    0.649968025131475    0.863761983507507  0.0000
  O1     O1        0.858997400184778    0.779503961986818    0.861025090068051  0.0000
  O1     O1        0.642249426060729    0.260140228445371    0.857017324193223  0.0000
  O1     O1        0.114996688524263    0.661776385165202    0.100979862628565  0.0000
  O1     O1        0.387117905128854    0.371132940695426    0.103723402012396  0.0000
  O1     O1        0.656377047529354    0.462670757908666    0.080312821742216  0.0000
  O3     O3        0.841662969255927    0.536902729623614    0.066717158572630  0.0000
  O3     O3        0.341071255379615    0.570928835746195    0.897081126483227  0.0000
  O1     O1        0.150639961032893    0.485698421329056    0.883464362451072  0.0000
  O3     O3        0.772241190477692    0.243424709999290    0.009406264867480  0.0000
  O1     O1        0.732933786333886    0.778189769624810    0.023727210856167  0.0000
  O1     O1        0.263341626521806    0.259005391408507    0.947965130926021  0.0000
  O3     O3        0.235287429877924    0.785881317533784    0.952919973199643  0.0000
