data_c00011.vasp
_audit_creation_method             Generated by GULP
_audit_author_name                 Salvador R. G. Balestra
_symmetry_space_group_name_H-M     'P 1             '
_symmetry_Int_Tables_number        1

loop_
_symmetry_equiv_pos_site_id
_symmetry_equiv_pos_as_xyz
_cell_length_a                       17.6512
_cell_length_b                        7.8526
_cell_length_c                       10.2752
_cell_angle_alpha                   88.9213
_cell_angle_beta                    89.9575
_cell_angle_gamma                   91.1851

loop_
_atom_site_label
_atom_site_type_symbol
_atom_site_fract_x
_atom_site_fract_y
_atom_site_fract_z
_atom_site_charge
  Ge     Ge        0.052090000000021    0.000000000000000    0.372269999999958  0.0000
  Ge     Ge        0.443184401593000    0.048969070241138    0.377577176903157  0.0000
  Ge     Ge        0.946974647548899    0.057464889917664    0.623131347742947  0.0000
  Ge     Ge        0.546903494151746    0.003274831166603    0.629288981854844  0.0000
  Ge     Ge        0.558175876143584    0.993828802664189    0.142085814249037  0.0000
  Ge     Ge        0.943371146873879    0.049503106787417    0.126531508350738  0.0000
  Ge     Ge        0.450497680215516    0.056568003456809    0.892540166665889  0.0000
  Ge     Ge        0.050653596037744    0.005655595212091    0.877852815411181  0.0000
  Ge     Ge        0.172884806092309    0.287274119357469    0.259114523702756  0.0000
  Ge     Ge        0.326249241171985    0.753593006373169    0.263590857150074  0.0000
  Ge     Ge        0.848950757788767    0.368362235593351    0.695075913291975  0.0000
  Ge     Ge        0.645025462721840    0.690041619831322    0.704418427913052  0.0000
  Ge     Ge        0.824991042793176    0.772180293649770    0.701383006394818  0.0000
  Ge     Ge        0.670397131989847    0.285295191098744    0.702478363690159  0.0000
  Ge     Ge        0.145228958949301    0.686579948006615    0.260551648394094  0.0000
  Ge     Ge        0.675557967142289    0.279085282075540    0.018334477768348  0.0000
  Ge     Ge        0.827957226167829    0.755391341776346    0.015164409870786  0.0000
  Ge     Ge        0.352415661376710    0.371684481686134    0.950327175783671  0.0000
  Ge     Ge        0.153705025249354    0.695748255191056    0.941926978376921  0.0000
  Ge     Ge        0.172668338708868    0.295488846746571    0.943528617442610  0.0000
  Ge     Ge        0.646034649961710    0.679656787042891    0.020703572780913  0.0000
  Si     Si        0.350743579139421    0.357850162339188    0.257781282432496  0.0000
  Si     Si        0.330143319531334    0.768472459913183    0.955584720121294  0.0000
  Si     Si        0.852523421421454    0.360207144042930    0.004519416894551  0.0000
  O1     O1        0.130797030975090    0.128347419836530    0.349826324840685  0.0000
  O1     O1        0.375996999003797    0.891614107764860    0.357997390179052  0.0000
  O1     O1        0.913593050583428    0.260720403053160    0.605400909596753  0.0000
  O1     O1        0.582402230958786    0.803086880452657    0.611002857192082  0.0000
  O1     O1        0.873728343804400    0.912615451861717    0.601796371329006  0.0000
  O1     O1        0.618883955634811    0.152415549258673    0.605807651721691  0.0000
  O1     O1        0.076499937722102    0.794457659474521    0.340569564639478  0.0000
  O3     O3        0.409648133095841    0.249428243939090    0.342048471264093  0.0000
  O1     O1        0.024666064862351    0.016367264236289    0.532586457021710  0.0000
  O1     O1        0.468523597703592    0.045095797113421    0.539874447030121  0.0000
  O1     O1        0.973922103171104    0.061147880931158    0.285060337972864  0.0000
  O1     O1        0.526805962528910    0.007567952432792    0.299815470715063  0.0000
  O1     O1        0.973242961399022    0.037300480930616    0.785010816568315  0.0000
  O1     O1        0.523293121711031    0.014406198767482    0.792833649301408  0.0000
  O1     O1        0.637011554865617    0.122309667276169    0.115793591564063  0.0000
  O1     O1        0.873806597936352    0.894587455349880    0.115569844123796  0.0000
  O1     O1        0.415792826893301    0.258298224030581    0.863880062605754  0.0000
  O1     O1        0.093173704687516    0.813643488860586    0.850797344528691  0.0000
  O3     O3        0.377601188716875    0.906043955373057    0.872126182402036  0.0000
  O1     O1        0.120124045838833    0.159702306810010    0.851652332186334  0.0000
  O1     O1        0.582099070842053    0.787396593134831    0.111267403427618  0.0000
  O3     O3        0.913916167966068    0.251570148915484    0.081895692774924  0.0000
  O1     O1        0.482446206711054    0.056219613149587    0.050249417353869  0.0000
  O1     O1        0.021812593092327    0.999825852729668    0.038362290217050  0.0000
  O1     O1        0.152710936364505    0.482494378928202    0.321839130649409  0.0000
  O3     O3        0.340224077089818    0.544387710143701    0.315942046023712  0.0000
  O1     O1        0.837315436275969    0.571049810799843    0.639160767096863  0.0000
  O1     O1        0.658302918545459    0.491767751235388    0.645767773798863  0.0000
  O3     O3        0.269922075612242    0.258498857373808    0.256788942216940  0.0000
  O1     O1        0.231674270674078    0.791730594389049    0.274189925097401  0.0000
  O1     O1        0.765836222057681    0.249515122014597    0.694090231457935  0.0000
  O1     O1        0.729606815074055    0.805930486003029    0.706286285162830  0.0000
  O1     O1        0.140599794723933    0.277510868708992    0.101874580583698  0.0000
  O3     O3        0.358430808348593    0.777245618827427    0.104935824470494  0.0000
  O3     O3        0.878622964892897    0.386863260168315    0.855686257724859  0.0000
  O1     O1        0.614380983058546    0.668628927130138    0.862984181232818  0.0000
  O1     O1        0.859396547288557    0.785920261238703    0.858348034457607  0.0000
  O1     O1        0.640951914249027    0.265173274725533    0.862451252628968  0.0000
  O1     O1        0.121869498716077    0.671867045500240    0.099461525347932  0.0000
  O3     O3        0.381451893789511    0.377408658982563    0.111413441613428  0.0000
  O1     O1        0.655356363674137    0.475208059522558    0.079578111365154  0.0000
  O3     O3        0.843288299980433    0.545348341121386    0.065830107692517  0.0000
  O3     O3        0.343449604144462    0.580261487530229    0.898408219876195  0.0000
  O1     O1        0.161861814740193    0.498408102573381    0.879728164957907  0.0000
  O3     O3        0.772772048954391    0.256288344975896    0.009205362976260  0.0000
  O1     O1        0.732352990025770    0.785981726163323    0.021652781763103  0.0000
  O1     O1        0.267952538906442    0.260598830629238    0.941632960342203  0.0000
  O3     O3        0.241024270702632    0.803070728248052    0.951464330421269  0.0000
