data_c00030.vasp
_audit_creation_method             Generated by GULP
_audit_author_name                 Salvador R. G. Balestra
_symmetry_space_group_name_H-M     'P 1             '
_symmetry_Int_Tables_number        1

loop_
_symmetry_equiv_pos_site_id
_symmetry_equiv_pos_as_xyz
_cell_length_a                       17.5682
_cell_length_b                        7.8349
_cell_length_c                       10.3238
_cell_angle_alpha                   89.3061
_cell_angle_beta                    90.4028
_cell_angle_gamma                   87.9817

loop_
_atom_site_label
_atom_site_type_symbol
_atom_site_fract_x
_atom_site_fract_y
_atom_site_fract_z
_atom_site_charge
  Ge     Ge        0.052090000000021    0.000000000000000    0.372269999999958  0.0000
  Ge     Ge        0.445752887240901    0.949025955655295    0.354360512264464  0.0000
  Ge     Ge        0.944725883906983    0.949343532845684    0.618776399928773  0.0000
  Ge     Ge        0.545606707107100    0.013411294615459    0.609876664461307  0.0000
  Ge     Ge        0.556739486993342    0.002348406261375    0.115182127069209  0.0000
  Ge     Ge        0.937950143594387    0.945040626663813    0.131513584373309  0.0000
  Ge     Ge        0.447041931009736    0.950143866756464    0.868464415752386  0.0000
  Ge     Ge        0.040860543014363    0.017302724128770    0.878459863405420  0.0000
  Ge     Ge        0.146327460715731    0.313793032614764    0.254089818048622  0.0000
  Ge     Ge        0.355810452973916    0.629271452002326    0.246822258656674  0.0000
  Ge     Ge        0.822092462983567    0.233581790187988    0.695497353510431  0.0000
  Ge     Ge        0.668672108452458    0.727657899139327    0.695664320112661  0.0000
  Ge     Ge        0.848432729517332    0.638038222433941    0.695280456642457  0.0000
  Ge     Ge        0.641819832968952    0.319977402908831    0.692112242990952  0.0000
  Ge     Ge        0.172808941218332    0.712246234148128    0.258593031369801  0.0000
  Ge     Ge        0.847709641394865    0.631695320739259    0.010210296527418  0.0000
  Ge     Ge        0.320255359027791    0.238666961020216    0.934518533227323  0.0000
  Ge     Ge        0.168016988231018    0.727957467656091    0.945427185693006  0.0000
  Ge     Ge        0.348917812341181    0.638796093587588    0.934711310630272  0.0000
  Ge     Ge        0.141096033610129    0.326488027738352    0.936761389204006  0.0000
  Ge     Ge        0.820620999421999    0.233825888887596    0.008793239102398  0.0000
  Si     Si        0.325212032646829    0.237562021976022    0.243964684371111  0.0000
  Si     Si        0.641192621663482    0.317021557022622    0.995431343924010  0.0000
  Si     Si        0.667716542889021    0.709150485648450    0.000882941727991  0.0000
  O1     O1        0.081036395275672    0.202227238004112    0.339040346626165  0.0000
  O1     O1        0.420508797921280    0.741536183180891    0.333930465433961  0.0000
  O1     O1        0.871206891139029    0.098194115721124    0.595324118099385  0.0000
  O1     O1        0.619613636993386    0.864589717753768    0.593866059357614  0.0000
  O1     O1        0.911994366537872    0.747021823028836    0.602641389032835  0.0000
  O1     O1        0.578917648649694    0.216156063516670    0.595793670574030  0.0000
  O1     O1        0.128228053663841    0.861696619916948    0.353418936764179  0.0000
  O3     O3        0.369111634983152    0.086013890715909    0.320891578116560  0.0000
  O1     O1        0.023778450854577    0.989449540737297    0.532012932977636  0.0000
  O1     O1        0.469019041143160    0.975993931644462    0.515430288960818  0.0000
  O1     O1        0.971067134014886    0.949585979677203    0.288339434616992  0.0000
  O1     O1        0.527644462345550    0.996786117408918    0.273610349807117  0.0000
  O1     O1        0.967105199482960    0.969800981216476    0.781862981223183  0.0000
  O1     O1        0.520709192548211    0.989922471106267    0.770841322798635  0.0000
  O3     O3        0.586709956431546    0.208471334776647    0.085506054494703  0.0000
  O1     O1        0.911047880652693    0.740575231629654    0.100125826108620  0.0000
  O1     O1        0.372128271096621    0.097105941861422    0.846152195770125  0.0000
  O1     O1        0.117007122261156    0.875715253441487    0.856282180638355  0.0000
  O1     O1        0.411113662896503    0.751601035043195    0.843602555166924  0.0000
  O1     O1        0.073050757898309    0.220471775580196    0.853835423902359  0.0000
  O3     O3        0.626841539386441    0.843459009495825    0.094859427030186  0.0000
  O1     O1        0.858418189190576    0.076693076113100    0.107424173368697  0.0000
  O1     O1        0.477002050110117    0.962512580535243    0.027535703789433  0.0000
  O1     O1        0.011973853403242    0.007466204889522    0.037929175751151  0.0000
  O1     O1        0.154736817760564    0.511928079658486    0.318951655626322  0.0000
  O3     O3        0.344708192678033    0.421390768258588    0.303173914683318  0.0000
  O1     O1        0.834771904803092    0.439230581558184    0.638003785634354  0.0000
  O1     O1        0.654261059154229    0.523285145483140    0.640870819009930  0.0000
  O3     O3        0.235235290529409    0.208658473760661    0.252769661009085  0.0000
  O1     O1        0.269023896957973    0.736594952271377    0.256286163558617  0.0000
  O1     O1        0.726237170540553    0.201009830408138    0.691927845219269  0.0000
  O1     O1        0.764204080514978    0.759594352892234    0.693846812264139  0.0000
  O1     O1        0.115839385703437    0.338874035875493    0.097350325044168  0.0000
  O1     O1        0.385277378118655    0.622408583967365    0.089974374619909  0.0000
  O1     O1        0.854874946374931    0.216334824655304    0.853662167035798  0.0000
  O3     O3        0.637050582721292    0.742333559038850    0.855323447009252  0.0000
  O1     O1        0.879336103014557    0.621083088750424    0.853636518640137  0.0000
  O3     O3        0.607914199503947    0.323875875206228    0.850555597800786  0.0000
  O1     O1        0.136949726220882    0.734734766602364    0.103630605527298  0.0000
  O3     O3        0.350882588466197    0.236804307427030    0.094899410241475  0.0000
  O2     O2        0.650719252992075    0.512403475674780    0.043472873465241  0.0000
  O1     O1        0.843067713436496    0.428348985795385    0.070926807254349  0.0000
  O1     O1        0.333838379285792    0.442392114029696    0.873822280005800  0.0000
  O1     O1        0.152739480719380    0.528626785109612    0.880651577788099  0.0000
  O3     O3        0.723084715534795    0.219802022990372    0.996415124836761  0.0000
  O3     O3        0.757866644893235    0.732145995132950    0.007046307517906  0.0000
  O1     O1        0.224966994476533    0.204706423280531    0.928262596351009  0.0000
  O1     O1        0.263968237456277    0.756747238355814    0.944470367947243  0.0000
