data_c00080.vasp
_audit_creation_method             Generated by GULP
_audit_author_name                 Salvador R. G. Balestra
_symmetry_space_group_name_H-M     'P 1             '
_symmetry_Int_Tables_number        1

loop_
_symmetry_equiv_pos_site_id
_symmetry_equiv_pos_as_xyz
_cell_length_a                       17.6074
_cell_length_b                        7.8765
_cell_length_c                       10.3330
_cell_angle_alpha                   89.6692
_cell_angle_beta                    90.7088
_cell_angle_gamma                   88.4598

loop_
_atom_site_label
_atom_site_type_symbol
_atom_site_fract_x
_atom_site_fract_y
_atom_site_fract_z
_atom_site_charge
  Ge     Ge        0.052090000000021    0.000000000000000    0.372269999999958  0.0000
  Ge     Ge        0.447959830080289    0.949737372616909    0.357517419282890  0.0000
  Ge     Ge        0.949202821323398    0.938760483720097    0.625505438168387  0.0000
  Ge     Ge        0.549923638329733    0.995609893223483    0.613892558754317  0.0000
  Ge     Ge        0.545840866882437    0.006020088692141    0.099772411803140  0.0000
  Ge     Ge        0.952937761904862    0.945870901790189    0.110260956020710  0.0000
  Ge     Ge        0.435341487480057    0.961967956169897    0.849339021368763  0.0000
  Ge     Ge        0.146508139705952    0.309570762876753    0.285193664171890  0.0000
  Ge     Ge        0.349383071777107    0.643115059043823    0.280778516194848  0.0000
  Ge     Ge        0.825720603991777    0.228029065886131    0.732488848948272  0.0000
  Ge     Ge        0.672397833189712    0.707135799053192    0.724415939491121  0.0000
  Ge     Ge        0.854061584210775    0.626768353171149    0.729942863088343  0.0000
  Ge     Ge        0.644824155909487    0.308059066813089    0.729316070578042  0.0000
  Ge     Ge        0.170403434904689    0.712719115521183    0.289171081941757  0.0000
  Ge     Ge        0.327675834340147    0.236261934777287    0.273003376222707  0.0000
  Ge     Ge        0.647096978726608    0.317864410463321    0.046961319847442  0.0000
  Ge     Ge        0.852210068227075    0.633944188712702    0.045118588293358  0.0000
  Ge     Ge        0.325742276863294    0.262658502078580    0.962208999345145  0.0000
  Ge     Ge        0.140005892611206    0.318722502938177    0.974778518512362  0.0000
  Ge     Ge        0.671603753321703    0.717314251235429    0.038502647278317  0.0000
  Ge     Ge        0.826833669532507    0.234454342682856    0.048737670900498  0.0000
  Si     Si        0.054600142966388    0.000933907390276    0.865519129503095  0.0000
  Si     Si        0.161821578533768    0.710207812481642    0.982704493514528  0.0000
  Si     Si        0.340549058950496    0.656092613325065    0.974144018484089  0.0000
  O1     O1        0.089342644911573    0.197963820562078    0.386490402378423  0.0000
  O1     O1        0.414637345289838    0.747492507758410    0.372421954386706  0.0000
  O1     O1        0.873505741604262    0.074424137444812    0.648156381397305  0.0000
  O1     O1        0.625701405147953    0.857475728356512    0.631517362118752  0.0000
  O1     O1        0.921240602979587    0.734562542404892    0.645760733507167  0.0000
  O1     O1        0.575558063750166    0.198342634562075    0.650957427690841  0.0000
  O1     O1        0.122392797182502    0.845273825081076    0.390559144154772  0.0000
  O1     O1        0.375240742674075    0.098366658337342    0.374741304980337  0.0000
  O1     O1        0.976380351281425    0.966716113355387    0.467239751270243  0.0000
  O1     O1        0.524468823673236    0.988807519421498    0.451807818508859  0.0000
  O1     O1        0.026602598498208    0.982254953868642    0.210521870241847  0.0000
  O1     O1        0.471824566280544    0.967294974887748    0.196142109910331  0.0000
  O3     O3        0.029956933791257    0.981986865278193    0.716720674699646  0.0000
  O1     O1        0.469263772423030    0.940761632407159    0.694759600776562  0.0000
  O1     O1        0.580246997457988    0.205996740039442    0.126666965289209  0.0000
  O1     O1        0.917277465410682    0.746579508735960    0.130839486281603  0.0000
  O1     O1        0.371119589894257    0.129026481454343    0.857403375917256  0.0000
  O2     O2        0.123679975084782    0.867878946110700    0.903042929029987  0.0000
  O3     O3        0.390268306201485    0.776218408339528    0.887613456507434  0.0000
  O3     O3        0.080203871211865    0.193679466423356    0.884703301948926  0.0000
  O1     O1        0.620455486369251    0.862378384229541    0.124895246577324  0.0000
  O1     O1        0.879759222795959    0.091106679913242    0.137121373438359  0.0000
  O1     O1        0.515149079241847    0.994034127278241    0.940896265491676  0.0000
  O3     O3        0.981090075627616    0.961946167823190    0.949579560185317  0.0000
  O1     O1        0.159758477653048    0.507589031715371    0.344279196972183  0.0000
  O1     O1        0.340653787284510    0.439423081702319    0.330945835146474  0.0000
  O1     O1        0.842500412849851    0.426916973016411    0.669333931873250  0.0000
  O1     O1        0.655914102314336    0.507144102811145    0.664754203391358  0.0000
  O1     O1        0.232267450353674    0.200436355469747    0.270388324854232  0.0000
  O1     O1        0.264678472625694    0.756326704356458    0.291800765927262  0.0000
  O1     O1        0.729791049067725    0.194520304412979    0.723748997800881  0.0000
  O1     O1        0.768430411450510    0.737981818355242    0.723407774612576  0.0000
  O1     O1        0.108499181594480    0.320238367792442    0.130409605212303  0.0000
  O3     O3        0.374974806877478    0.643316553375606    0.118386605967155  0.0000
  O1     O1        0.855774286627627    0.223921969462734    0.890548769110036  0.0000
  O1     O1        0.640031177885442    0.724777560078636    0.880070007682498  0.0000
  O1     O1        0.882472507341053    0.609654271624880    0.888649028370933  0.0000
  O1     O1        0.619901262687092    0.338048520696078    0.887041489005589  0.0000
  O3     O3        0.135102502230042    0.719233616088443    0.130318702359008  0.0000
  O1     O1        0.360524062022537    0.225169693179305    0.116103125325492  0.0000
  O1     O1        0.658365670658951    0.517739281473009    0.104917003289667  0.0000
  O1     O1        0.840072339241705    0.436476601435260    0.108760247909897  0.0000
  O3     O3        0.341256453487473    0.469844568191819    0.913116313747130  0.0000
  O3     O3        0.139171686313073    0.530536926737395    0.922232763547457  0.0000
  O1     O1        0.731323238057523    0.200230630231700    0.053389851677975  0.0000
  O1     O1        0.767449683646228    0.750075916866971    0.041115836814942  0.0000
  O1     O1        0.229784265231512    0.233987844707371    0.962878551901122  0.0000
  O2     O2        0.253220991471245    0.727383145586342    0.982659855515441  0.0000
