data_c00003.vasp
_audit_creation_method             Generated by GULP
_audit_author_name                 Salvador R. G. Balestra
_symmetry_space_group_name_H-M     'P 1             '
_symmetry_Int_Tables_number        1

loop_
_symmetry_equiv_pos_site_id
_symmetry_equiv_pos_as_xyz
_cell_length_a                       17.6038
_cell_length_b                        7.8441
_cell_length_c                       10.3757
_cell_angle_alpha                   90.4024
_cell_angle_beta                    90.2469
_cell_angle_gamma                   88.1907

loop_
_atom_site_label
_atom_site_type_symbol
_atom_site_fract_x
_atom_site_fract_y
_atom_site_fract_z
_atom_site_charge
  Ge     Ge        0.052090000000021    0.000000000000000    0.372269999999958  0.0000
  Ge     Ge        0.451681598370384    0.939444676491822    0.411597706585546  0.0000
  Ge     Ge        0.956644475423889    0.932129574654542    0.630824871798147  0.0000
  Ge     Ge        0.555260388090698    0.989503567802273    0.664763575219459  0.0000
  Ge     Ge        0.559125889130046    0.992612351045335    0.167316825512578  0.0000
  Ge     Ge        0.951341347763701    0.939820435346568    0.113093453428154  0.0000
  Ge     Ge        0.452622716494991    0.924290704810708    0.918270625218155  0.0000
  Ge     Ge        0.064972876775134    0.983883605297386    0.873501121121090  0.0000
  Ge     Ge        0.149402943441122    0.307584963893101    0.298372943129674  0.0000
  Ge     Ge        0.356869131465009    0.629272191617122    0.292145992809069  0.0000
  Ge     Ge        0.831518402586697    0.222115877668830    0.744313216070827  0.0000
  Ge     Ge        0.680368278624678    0.705919264982067    0.738084043683490  0.0000
  Ge     Ge        0.862526333802621    0.622086116343869    0.740586532943870  0.0000
  Ge     Ge        0.651799543515590    0.304514256849279    0.734836401557164  0.0000
  Ge     Ge        0.176785946381820    0.714365972815908    0.292066052828614  0.0000
  Ge     Ge        0.330078594152546    0.227296237346186    0.300621473987624  0.0000
  Ge     Ge        0.651334731442569    0.305227131369351    0.050176288147783  0.0000
  Ge     Ge        0.860102932260865    0.616048896042328    0.050575883367561  0.0000
  Ge     Ge        0.330393665581109    0.216783411425539    0.989560355804872  0.0000
  Ge     Ge        0.353208012561863    0.612289025935457    0.977036249218268  0.0000
  Ge     Ge        0.678138714455046    0.704949628873013    0.049606520591616  0.0000
  Si     Si        0.175303257384921    0.689557064023854    0.987831051145851  0.0000
  Si     Si        0.151480847154710    0.295532350369793    0.996346244113572  0.0000
  Si     Si        0.829564944084106    0.227844157849452    0.052521834125453  0.0000
  O1     O1        0.085804509574948    0.202152896931293    0.390547221415767  0.0000
  O1     O1        0.425393516765018    0.736572364839739    0.373447069505529  0.0000
  O1     O1        0.880341356425098    0.065484718477064    0.663960449936784  0.0000
  O1     O1        0.630981010208632    0.848303795400977    0.643188503466025  0.0000
  O1     O1        0.929254400234545    0.726945585019686    0.654009461233707  0.0000
  O1     O1        0.586662490487297    0.193081895072885    0.647322676367302  0.0000
  O1     O1        0.126992811021100    0.853982367859794    0.387520485631662  0.0000
  O1     O1        0.376596048387948    0.081343027289973    0.395791922740797  0.0000
  O1     O1        0.978587951162135    0.957574432885207    0.470191402435835  0.0000
  O1     O1        0.479182673607931    0.944371200042104    0.571215428389781  0.0000
  O1     O1        0.023714889349900    0.984451759459995    0.213240884072435  0.0000
  O1     O1        0.529942786069470    0.994489469270687    0.324997986290871  0.0000
  O1     O1        0.037424310144836    0.982386570071786    0.714482869462560  0.0000
  O1     O1        0.526801160013893    0.970861778107360    0.823992254208558  0.0000
  O1     O1        0.585031583368273    0.196792060813410    0.132211797475135  0.0000
  O1     O1        0.919349081109114    0.737994891650448    0.141209104171960  0.0000
  O1     O1        0.375584165332223    0.064279877974575    0.899551279857682  0.0000
  O3     O3        0.132048293414214    0.819574897756866    0.893252135337492  0.0000
  O1     O1        0.416028856638478    0.725943114931905    0.890437755721920  0.0000
  O3     O3        0.097471879011240    0.186995206495726    0.905220610494943  0.0000
  O1     O1        0.636707070540839    0.858067155784051    0.145850223226522  0.0000
  O3     O3        0.875074195596578    0.085192668473145    0.132560413007718  0.0000
  O1     O1        0.483368494266943    0.929944569308219    0.076419092989310  0.0000
  O1     O1        0.983784238046202    0.948161038630345    0.956804772168570  0.0000
  O1     O1        0.160488191015840    0.511620830274816    0.348116494607453  0.0000
  O1     O1        0.344423872561268    0.431478964708649    0.356410925098066  0.0000
  O1     O1        0.849652034223285    0.419883250663049    0.681934105685315  0.0000
  O1     O1        0.664658313439100    0.503750723826074    0.677143299524057  0.0000
  O1     O1        0.234503894721616    0.193960497117529    0.302884235972179  0.0000
  O1     O1        0.272214677518404    0.747037507318849    0.298556987777274  0.0000
  O1     O1        0.736425751658348    0.187180829210500    0.733281943179449  0.0000
  O1     O1        0.776372991107808    0.734437749844393    0.737137229882667  0.0000
  O3     O3        0.117472821012390    0.305090162565770    0.138877717450494  0.0000
  O1     O1        0.383052431831021    0.600050973759555    0.134805062012408  0.0000
  O3     O3        0.858220478074541    0.226407747795488    0.905206120044596  0.0000
  O1     O1        0.645508161839003    0.721162529420131    0.893187918998622  0.0000
  O1     O1        0.894695481798176    0.606944608424870    0.896403284447911  0.0000
  O1     O1        0.622834958480560    0.321139649056658    0.892659976413182  0.0000
  O3     O3        0.145784542521643    0.725410294865915    0.132241321777017  0.0000
  O1     O1        0.363968393126897    0.206218984656056    0.145588807006844  0.0000
  O1     O1        0.658237157617585    0.507299842223152    0.110609472995616  0.0000
  O3     O3        0.846883401614156    0.414956304290290    0.111546163969849  0.0000
  O1     O1        0.348659795546185    0.409714298960180    0.919331979248251  0.0000
  O2     O2        0.161369894179435    0.490807810492945    0.948177560493335  0.0000
  O3     O3        0.739775810953051    0.198932182971426    0.056284427543242  0.0000
  O1     O1        0.774127766808179    0.725563564131454    0.043235386888831  0.0000
  O3     O3        0.233078715156108    0.197505146555472    0.998137157025604  0.0000
  O3     O3        0.264748737103587    0.717746183627711    0.980182262469221  0.0000
