data_c00018.vasp
_audit_creation_method             Generated by GULP
_audit_author_name                 Salvador R. G. Balestra
_symmetry_space_group_name_H-M     'P 1             '
_symmetry_Int_Tables_number        1

loop_
_symmetry_equiv_pos_site_id
_symmetry_equiv_pos_as_xyz
_cell_length_a                       17.7274
_cell_length_b                        7.8139
_cell_length_c                       10.2048
_cell_angle_alpha                   88.9488
_cell_angle_beta                    90.2920
_cell_angle_gamma                   91.0570

loop_
_atom_site_label
_atom_site_type_symbol
_atom_site_fract_x
_atom_site_fract_y
_atom_site_fract_z
_atom_site_charge
  Ge     Ge        0.052090000000021    0.000000000000000    0.372269999999958  0.0000
  Ge     Ge        0.445864781946762    0.053304242940676    0.415382615428191  0.0000
  Ge     Ge        0.946744991381993    0.063771224578162    0.619744022137007  0.0000
  Ge     Ge        0.547950781108437    0.018883277362088    0.670603508864843  0.0000
  Ge     Ge        0.561081106253261    0.999191499240310    0.184319659001688  0.0000
  Ge     Ge        0.951279769702854    0.062208103011379    0.113030555473254  0.0000
  Ge     Ge        0.451261449176364    0.070329106869782    0.935670193845712  0.0000
  Ge     Ge        0.057305103331094    0.005213843395060    0.863455186068500  0.0000
  Ge     Ge        0.178196218996659    0.279479427233435    0.306596283706512  0.0000
  Ge     Ge        0.330419632405579    0.756572200687300    0.307639313283421  0.0000
  Ge     Ge        0.852824790928699    0.373607404869079    0.738655832517770  0.0000
  Ge     Ge        0.645614204713581    0.699402788204340    0.742210235882238  0.0000
  Ge     Ge        0.825444148502205    0.778461680575778    0.736576784051753  0.0000
  Ge     Ge        0.674268537030411    0.293950319518564    0.739564674216300  0.0000
  Ge     Ge        0.149037202373463    0.682315431843894    0.307737762171292  0.0000
  Ge     Ge        0.678857062265636    0.286202733923282    0.058824212344270  0.0000
  Ge     Ge        0.830842818791162    0.767968688137656    0.052688533667631  0.0000
  Ge     Ge        0.150311404781050    0.692306344783550    0.988731415723026  0.0000
  Ge     Ge        0.330778092941562    0.772663775770315    0.993150296113617  0.0000
  Ge     Ge        0.178633799177560    0.287819933802319    0.982053126994210  0.0000
  Ge     Ge        0.651039514252880    0.689480890028845    0.061297770358684  0.0000
  Si     Si        0.350707063475194    0.362325612839654    0.300012272642006  0.0000
  Si     Si        0.349871823264410    0.378763188163635    0.987357740224865  0.0000
  Si     Si        0.853299871538731    0.372449721678690    0.051570512620714  0.0000
  O1     O1        0.128936895371889    0.133751875487251    0.399040360841883  0.0000
  O1     O1        0.377586353942096    0.897356984529659    0.406657543390964  0.0000
  O1     O1        0.921476433230480    0.268482682207436    0.656917444103957  0.0000
  O1     O1        0.579757607604674    0.813527964667872    0.655292982294670  0.0000
  O1     O1        0.871091267999330    0.927646214841843    0.640046860802792  0.0000
  O1     O1        0.623267480880545    0.157680658621310    0.643848381564082  0.0000
  O1     O1        0.083940988495421    0.795089775569024    0.393605283719592  0.0000
  O3     O3        0.419066714504988    0.253253836845410    0.355823237355907  0.0000
  O1     O1        0.973946889421213    0.050194973409345    0.457977423822009  0.0000
  O1     O1        0.470524382414236    0.066104022838287    0.578771372452958  0.0000
  O1     O1        0.028323732327501    0.032065968344010    0.208596701430038  0.0000
  O1     O1        0.529920449624796    0.004115538034206    0.343233109732768  0.0000
  O1     O1        0.027327571301779    0.008233462131361    0.703248644944248  0.0000
  O1     O1        0.524772526403243    0.046504339783048    0.833526517831113  0.0000
  O1     O1        0.637774589416202    0.132652010215487    0.156937923891145  0.0000
  O1     O1        0.884176891122182    0.904522400226932    0.144914571498772  0.0000
  O3     O3        0.417431465118682    0.278972100433655    0.924305202196472  0.0000
  O1     O1        0.084370049728168    0.800127731498351    0.899615964485000  0.0000
  O1     O1        0.381945608305985    0.919420532145462    0.903000856112414  0.0000
  O1     O1        0.133142704656710    0.141464283886014    0.887382669467576  0.0000
  O1     O1        0.587007316987916    0.793460130267434    0.153424298749123  0.0000
  O3     O3        0.913595492104961    0.264377277605246    0.133623471738863  0.0000
  O1     O1        0.483490760969267    0.055529898056093    0.094074591700110  0.0000
  O1     O1        0.980270973917105    0.061034979139310    0.952319027056386  0.0000
  O1     O1        0.158090288646397    0.478455212070485    0.366137276028630  0.0000
  O3     O3        0.346381274963581    0.547613016974760    0.364254231310050  0.0000
  O1     O1        0.840878154674509    0.576683960682614    0.677133760574502  0.0000
  O1     O1        0.658893347202584    0.500291500500999    0.682557545525519  0.0000
  O3     O3        0.274646437489617    0.250548508892348    0.324109015171971  0.0000
  O1     O1        0.235261853842675    0.788982656324998    0.311011912374126  0.0000
  O1     O1        0.769436527788665    0.258280081551702    0.729648574593421  0.0000
  O1     O1        0.730392738839582    0.812687920502839    0.739610362914761  0.0000
  O1     O1        0.153601077950946    0.263734398275413    0.143730903272746  0.0000
  O1     O1        0.362831822838293    0.794579195407789    0.151703695586883  0.0000
  O3     O3        0.878685227711208    0.399560356088114    0.901048170594076  0.0000
  O1     O1        0.618085982772431    0.679940620558544    0.903199199794464  0.0000
  O1     O1        0.860466076643293    0.795104378146514    0.893500854525847  0.0000
  O1     O1        0.646032712115467    0.274271154543885    0.900977016441690  0.0000
  O1     O1        0.119783611087344    0.672504375372280    0.147320245290112  0.0000
  O2     O2        0.357055189421935    0.407263694064630    0.144735933641412  0.0000
  O1     O1        0.661401218081506    0.484911031385659    0.120413776824122  0.0000
  O3     O3        0.842631930322179    0.558317955945231    0.110828632097017  0.0000
  O3     O3        0.344513025267029    0.569437963013254    0.929324547967571  0.0000
  O1     O1        0.159329572960324    0.491684452270317    0.927304782234632  0.0000
  O3     O3        0.775591199466167    0.261260465684841    0.052205722157070  0.0000
  O1     O1        0.736000179937693    0.801846417922550    0.061393490591742  0.0000
  O3     O3        0.275077899348679    0.262952284879640    0.965821948835039  0.0000
  O1     O1        0.235529917542778    0.803898065615817    0.987727399562894  0.0000
