data_c00094.vasp
_audit_creation_method             Generated by GULP
_audit_author_name                 Salvador R. G. Balestra
_symmetry_space_group_name_H-M     'P 1             '
_symmetry_Int_Tables_number        1

loop_
_symmetry_equiv_pos_site_id
_symmetry_equiv_pos_as_xyz
_cell_length_a                       17.5902
_cell_length_b                        7.8498
_cell_length_c                       10.3005
_cell_angle_alpha                   88.8856
_cell_angle_beta                    90.2789
_cell_angle_gamma                   91.6401

loop_
_atom_site_label
_atom_site_type_symbol
_atom_site_fract_x
_atom_site_fract_y
_atom_site_fract_z
_atom_site_charge
  Ge     Ge        0.052090000000021    0.000000000000000    0.372269999999958  0.0000
  Ge     Ge        0.442632924301074    0.061514430521919    0.353768487111964  0.0000
  Ge     Ge        0.947985819364117    0.069228495721519    0.620954536516285  0.0000
  Ge     Ge        0.545863429802566    0.019632099378785    0.609078995568173  0.0000
  Ge     Ge        0.552162265524840    0.011378437396690    0.112891947387971  0.0000
  Ge     Ge        0.940174933478751    0.062020105678747    0.125502348935787  0.0000
  Ge     Ge        0.443569340498017    0.073874793879551    0.865411123236917  0.0000
  Ge     Ge        0.171234024040696    0.289926335317802    0.254391058144499  0.0000
  Ge     Ge        0.324982841323461    0.763047042199431    0.248457965011430  0.0000
  Ge     Ge        0.850925976298877    0.381777884352400    0.690670541571598  0.0000
  Ge     Ge        0.641952955092377    0.703989871700061    0.683625831158067  0.0000
  Ge     Ge        0.823400895651312    0.783812114026625    0.691884061622687  0.0000
  Ge     Ge        0.670668239478345    0.300915685778484    0.688315585454933  0.0000
  Ge     Ge        0.142555923532409    0.687730879106895    0.259201381471184  0.0000
  Ge     Ge        0.821276560712800    0.776290166174424    0.006989533651766  0.0000
  Ge     Ge        0.340600130658989    0.380201168501992    0.926508818416774  0.0000
  Ge     Ge        0.138682143944395    0.702202158227735    0.943698992023742  0.0000
  Ge     Ge        0.320339423702904    0.782311562954056    0.935768171537008  0.0000
  Ge     Ge        0.160566331266959    0.299744805785317    0.938879955860127  0.0000
  Ge     Ge        0.639054588427975    0.693474975457905    0.996675243454154  0.0000
  Ge     Ge        0.847117649686801    0.376772264985074    0.006002288443642  0.0000
  Si     Si        0.041469625692874    0.009775545434913    0.877404314177650  0.0000
  Si     Si        0.347908588683209    0.369438056758713    0.237082491651923  0.0000
  Si     Si        0.668327632587788    0.298882809012770    0.996521067034540  0.0000
  O1     O1        0.131073692752996    0.128360318689599    0.344703435216842  0.0000
  O1     O1        0.374350564599495    0.902803827528380    0.344413483440412  0.0000
  O1     O1        0.915954219090567    0.272463931623420    0.602958193414870  0.0000
  O1     O1        0.579467119299890    0.818332231284784    0.590092933862633  0.0000
  O1     O1        0.873594564517285    0.926672445788280    0.596136338594850  0.0000
  O1     O1        0.621105717104245    0.163618041139464    0.591959344176050  0.0000
  O1     O1        0.077317384163388    0.793957665985669    0.347844252361116  0.0000
  O3     O3        0.411496798432273    0.261468309646382    0.309757887018637  0.0000
  O1     O1        0.025342541122039    0.027290233618100    0.530930931365742  0.0000
  O1     O1        0.469700184432310    0.066766087446472    0.514994698863197  0.0000
  O1     O1        0.973928545400146    0.054321575669460    0.281806902235279  0.0000
  O1     O1        0.524645722743098    0.019768003148312    0.272353673493428  0.0000
  O3     O3        0.970826836846596    0.043175092711292    0.785569881760558  0.0000
  O1     O1        0.518594383274575    0.036941436151918    0.769687936302279  0.0000
  O3     O3        0.627984291672609    0.151918232127732    0.083113472172146  0.0000
  O1     O1        0.864620190658218    0.922918363392464    0.105188303663614  0.0000
  O1     O1        0.406416984991603    0.273485296563223    0.841930341104270  0.0000
  O3     O3        0.075410242601125    0.824076010462028    0.855596154477688  0.0000
  O1     O1        0.369822613505875    0.927241147760738    0.842232494033040  0.0000
  O3     O3        0.107046063282853    0.154782644108933    0.851653645826104  0.0000
  O1     O1        0.576405325622727    0.803913356264476    0.086368019742813  0.0000
  O1     O1        0.910028678274628    0.265238781827508    0.097845585245220  0.0000
  O1     O1        0.473449906703898    0.063770672256455    0.024807628912987  0.0000
  O3     O3        0.015801195327299    0.013855694103580    0.027625711447519  0.0000
  O1     O1        0.152629699479842    0.484248681914621    0.319686416575224  0.0000
  O3     O3        0.339095148121840    0.553246227803185    0.300464553612495  0.0000
  O1     O1        0.838197872915578    0.582908808928992    0.631783026787744  0.0000
  O1     O1        0.655757636860907    0.504726533797153    0.628145068935071  0.0000
  O3     O3        0.268319101215293    0.262332561810401    0.246050738314658  0.0000
  O1     O1        0.229265556219387    0.795192064595233    0.258780795256645  0.0000
  O1     O1        0.765922114301840    0.265434738345782    0.686120263460632  0.0000
  O1     O1        0.727664225482275    0.817226002622481    0.688535374668507  0.0000
  O1     O1        0.134898592296517    0.285379975692784    0.099475340108060  0.0000
  O1     O1        0.355637375671717    0.794585165367862    0.092132130222512  0.0000
  O1     O1        0.880107762634253    0.393969396247914    0.849816571211412  0.0000
  O1     O1        0.607126217842678    0.689600450622330    0.839584611510745  0.0000
  O1     O1        0.854350668198455    0.793060897255136    0.850624038165155  0.0000
  O3     O3        0.638750011051378    0.289790279146602    0.848362370308454  0.0000
  O1     O1        0.110357597990581    0.674000947470632    0.101965247950455  0.0000
  O3     O3        0.368987924210118    0.401927068636804    0.087386519486297  0.0000
  O3     O3        0.650010444339712    0.484813397216033    0.051503533181770  0.0000
  O1     O1        0.839235936335274    0.575206967646781    0.068027654283366  0.0000
  O1     O1        0.330608435604638    0.583335641789528    0.869808815305782  0.0000
  O1     O1        0.145779366912495    0.504083524280958    0.879680929019451  0.0000
  O3     O3        0.758556079947193    0.273185020689668    0.999250590612019  0.0000
  O1     O1        0.725076146575896    0.801446337588746    0.003779714998820  0.0000
  O1     O1        0.255777665239362    0.264882046276607    0.923597662595740  0.0000
  O1     O1        0.224475725705166    0.813444171863556    0.943372407941660  0.0000
