data_c00031.vasp
_audit_creation_method             Generated by GULP
_audit_author_name                 Salvador R. G. Balestra
_symmetry_space_group_name_H-M     'P 1             '
_symmetry_Int_Tables_number        1

loop_
_symmetry_equiv_pos_site_id
_symmetry_equiv_pos_as_xyz
_cell_length_a                       17.6541
_cell_length_b                        7.8635
_cell_length_c                       10.2994
_cell_angle_alpha                   89.2800
_cell_angle_beta                    90.0786
_cell_angle_gamma                   91.7005

loop_
_atom_site_label
_atom_site_type_symbol
_atom_site_fract_x
_atom_site_fract_y
_atom_site_fract_z
_atom_site_charge
  Ge     Ge        0.052090000000021    0.000000000000000    0.372269999999958  0.0000
  Ge     Ge        0.445931032599028    0.057727279149433    0.400745862568995  0.0000
  Ge     Ge        0.948554934654667    0.068378087608762    0.623372426277744  0.0000
  Ge     Ge        0.549691417050201    0.014963892024742    0.654309076387551  0.0000
  Ge     Ge        0.555416276335505    0.010541844095011    0.158492727160329  0.0000
  Ge     Ge        0.947111725546736    0.062670249286461    0.119657537864490  0.0000
  Ge     Ge        0.447490052773561    0.067606328126299    0.910864454121346  0.0000
  Ge     Ge        0.053986538546311    0.012695080838077    0.872066095454062  0.0000
  Ge     Ge        0.175162593129681    0.286934647181927    0.295168011152099  0.0000
  Ge     Ge        0.329324506922575    0.758072572673117    0.293314772068552  0.0000
  Ge     Ge        0.853858453059587    0.376685755706406    0.736642854504781  0.0000
  Ge     Ge        0.644964530298356    0.700081142090086    0.729112236386187  0.0000
  Ge     Ge        0.826368781876862    0.777877684810430    0.736856672368405  0.0000
  Ge     Ge        0.673672888067039    0.298071266252236    0.731732456778768  0.0000
  Ge     Ge        0.147157066153171    0.685794468122256    0.304077129560695  0.0000
  Ge     Ge        0.825208195053346    0.772570312840776    0.051038885750345  0.0000
  Ge     Ge        0.346330653884876    0.376009281413835    0.974976847765375  0.0000
  Ge     Ge        0.144137718051833    0.694505534803025    0.990619901310630  0.0000
  Ge     Ge        0.325756129229072    0.775563132559807    0.980455582119537  0.0000
  Ge     Ge        0.643453875388927    0.693777190541953    0.041724359892299  0.0000
  Ge     Ge        0.848146726477849    0.374878496348854    0.052822402172042  0.0000
  Si     Si        0.351252551855955    0.363570904612188    0.284999018322257  0.0000
  Si     Si        0.670726282115559    0.298393002026260    0.040081365778885  0.0000
  Si     Si        0.170234544442276    0.298791945573253    0.986032415305889  0.0000
  O1     O1        0.129346081266020    0.138199463872405    0.388695560509382  0.0000
  O1     O1        0.378692390551209    0.897517726208767    0.389552634691069  0.0000
  O1     O1        0.921289194596090    0.271894522245061    0.651881618534313  0.0000
  O1     O1        0.583406003799288    0.814141873948027    0.635183889753594  0.0000
  O1     O1        0.873107434713227    0.929881839853025    0.645706305531121  0.0000
  O1     O1        0.624493029717212    0.159020769058722    0.636106726713366  0.0000
  O1     O1        0.084931532572536    0.798717421513115    0.395396899996567  0.0000
  O3     O3        0.413530705680066    0.256829633362889    0.360372581641377  0.0000
  O1     O1        0.976377002477053    0.050113380185426    0.463468709038199  0.0000
  O1     O1        0.473301676906990    0.060526811857505    0.561684898911158  0.0000
  O1     O1        0.024083320455639    0.023236268856710    0.211810671976014  0.0000
  O1     O1        0.527892299550336    0.020104512738935    0.318003785609517  0.0000
  O1     O1        0.027797240128116    0.020233884205876    0.711638044616516  0.0000
  O1     O1        0.522808787924260    0.033027449206361    0.815320764946437  0.0000
  O3     O3        0.629437290159528    0.154270226389696    0.127199369058852  0.0000
  O1     O1        0.874461688967198    0.914433670167567    0.144349535443340  0.0000
  O1     O1        0.409528605950333    0.265577559407108    0.888004976244778  0.0000
  O1     O1        0.081292541186151    0.807299233312473    0.900900029027259  0.0000
  O1     O1        0.374253171818031    0.921023902428097    0.886899215190921  0.0000
  O3     O3        0.126812011529472    0.159799172782065    0.900077285392089  0.0000
  O1     O1        0.581882779977894    0.804430683060446    0.133458220578895  0.0000
  O1     O1        0.908558502762719    0.258123899557391    0.144695191908640  0.0000
  O1     O1        0.476589668873813    0.057080557016199    0.070390274205209  0.0000
  O1     O1        0.975162038903111    0.058588370672955    0.959061268264320  0.0000
  O1     O1        0.156059644840821    0.482487450875752    0.359380769668544  0.0000
  O3     O3        0.341964259001518    0.548839688791440    0.345946221660586  0.0000
  O1     O1        0.842249558640159    0.578287063119136    0.676234424629434  0.0000
  O1     O1        0.657798415795799    0.500757888524384    0.672584218504255  0.0000
  O3     O3        0.271628875131497    0.257071050060831    0.294493334591726  0.0000
  O1     O1        0.234054955835667    0.791696885516723    0.301095285741593  0.0000
  O1     O1        0.768661399851376    0.263446808909723    0.727337298975521  0.0000
  O1     O1        0.730883852947281    0.810359346389522    0.735308515366636  0.0000
  O3     O3        0.143180996303711    0.283559334350659    0.135381561542393  0.0000
  O1     O1        0.360330351615413    0.787466188780823    0.137102099211120  0.0000
  O1     O1        0.881041403779818    0.392481656693337    0.895943214458494  0.0000
  O1     O1        0.610452957399400    0.689162026018336    0.885567538892143  0.0000
  O1     O1        0.858793745059246    0.786213952286160    0.894029240290402  0.0000
  O3     O3        0.641665839143280    0.288591904517306    0.891871381279398  0.0000
  O1     O1        0.112882939318168    0.682069601103813    0.147410049765276  0.0000
  O3     O3        0.374968135059823    0.391430844558539    0.135953756230334  0.0000
  O3     O3        0.654225150394375    0.485464203132125    0.095173553472802  0.0000
  O1     O1        0.840199136565569    0.572210003134699    0.115137324013568  0.0000
  O1     O1        0.340087024158860    0.577217131929129    0.915949647765488  0.0000
  O3     O3        0.154390458337045    0.489368888988033    0.933975013106729  0.0000
  O3     O3        0.760287582253610    0.269674866113660    0.042271008530839  0.0000
  O1     O1        0.729673243498851    0.801096774833028    0.047808408559733  0.0000
  O3     O3        0.259395733580237    0.267241751151838    0.976962779751671  0.0000
  O1     O1        0.230117086151035    0.802938798298602    0.985089394434763  0.0000
