data_c00079.vasp
_audit_creation_method             Generated by GULP
_audit_author_name                 Salvador R. G. Balestra
_symmetry_space_group_name_H-M     'P 1             '
_symmetry_Int_Tables_number        1

loop_
_symmetry_equiv_pos_site_id
_symmetry_equiv_pos_as_xyz
_cell_length_a                       17.6114
_cell_length_b                        7.8455
_cell_length_c                       10.1265
_cell_angle_alpha                   89.1908
_cell_angle_beta                    89.3575
_cell_angle_gamma                   93.1354

loop_
_atom_site_label
_atom_site_type_symbol
_atom_site_fract_x
_atom_site_fract_y
_atom_site_fract_z
_atom_site_charge
  Ge     Ge        0.052090000000021    0.000000000000000    0.372269999999958  0.0000
  Ge     Ge        0.449175395658094    0.055816121342476    0.380085428273819  0.0000
  Ge     Ge        0.965271558498062    0.085032934567585    0.637822565264975  0.0000
  Ge     Ge        0.558933583220795    0.021828962783816    0.629549336996864  0.0000
  Ge     Ge        0.557467945889579    0.011863691253420    0.128391680536057  0.0000
  Ge     Ge        0.939494727638170    0.088701758168379    0.142433811533413  0.0000
  Ge     Ge        0.451135288734611    0.091104931834892    0.881056918557986  0.0000
  Ge     Ge        0.175041096677264    0.299206967432871    0.259945166646735  0.0000
  Ge     Ge        0.326588217465351    0.763840340038737    0.273992857497203  0.0000
  Ge     Ge        0.866417499545344    0.394842042391723    0.705206396235338  0.0000
  Ge     Ge        0.656005560528259    0.707171656844901    0.684612518116603  0.0000
  Ge     Ge        0.835407267056953    0.794848575785680    0.693362184226263  0.0000
  Ge     Ge        0.686081270531980    0.307492899049031    0.691868691202114  0.0000
  Ge     Ge        0.144039971242251    0.686059703823899    0.279060485830170  0.0000
  Ge     Ge        0.352755963255411    0.355889918650042    0.253076280872788  0.0000
  Ge     Ge        0.679173137287258    0.307141584515552    0.016146758229328  0.0000
  Ge     Ge        0.823117399467262    0.799463198728453    0.015657574645028  0.0000
  Ge     Ge        0.343386016499652    0.381100422033092    0.936835766572131  0.0000
  Ge     Ge        0.329475516524333    0.789497200347686    0.957176792468048  0.0000
  Ge     Ge        0.644902033615450    0.701426134581296    0.007987951594808  0.0000
  Ge     Ge        0.858402661775851    0.405875904200359    0.026684011233067  0.0000
  Si     Si        0.054547561491037    0.030406979303228    0.905940523099447  0.0000
  Si     Si        0.152087344231639    0.723629192151615    0.957619390476186  0.0000
  Si     Si        0.170470803689903    0.345169970209924    0.938340601913870  0.0000
  O1     O1        0.129300439763377    0.110070209715550    0.300092592710166  0.0000
  O1     O1        0.374920221633022    0.905515166290399    0.373326363980952  0.0000
  O1     O1        0.936083088321377    0.288751428052356    0.626116618526731  0.0000
  O1     O1        0.587863715715783    0.818399556278654    0.606347272220328  0.0000
  O1     O1        0.888040271993341    0.948078294628091    0.606007956798412  0.0000
  O1     O1        0.639457261620984    0.153747679364308    0.601405718018044  0.0000
  O1     O1        0.074685435917943    0.790613261746298    0.358634436632016  0.0000
  O1     O1        0.421198937720765    0.254934341835753    0.337291190833315  0.0000
  O1     O1        0.040433142627988    0.053491802193393    0.535144504464866  0.0000
  O1     O1        0.480559197120642    0.062383029045548    0.540459084710030  0.0000
  O1     O1        0.967884084788154    0.048196932175779    0.300809188140522  0.0000
  O1     O1        0.527777626266734    0.003899998249036    0.290329719953469  0.0000
  O3     O3        0.989012347491230    0.036900024046336    0.800779763274179  0.0000
  O1     O1        0.531475990165255    0.064185063711118    0.790187538058886  0.0000
  O1     O1        0.638832606029514    0.140662866420676    0.107698258374565  0.0000
  O1     O1        0.859656680045923    0.967771660087947    0.105666745263300  0.0000
  O1     O1        0.408547626977372    0.277699707446924    0.844913667736636  0.0000
  O2     O2        0.095386558796921    0.851993030112029    0.888451342358942  0.0000
  O1     O1        0.381837281509543    0.929683052199843    0.859576696703451  0.0000
  O2     O2        0.114846169418856    0.193462864362996    0.884074945635936  0.0000
  O1     O1        0.575160674774533    0.805589951571770    0.085754734126622  0.0000
  O1     O1        0.921354187557982    0.299573558256129    0.122083040367893  0.0000
  O1     O1        0.483176958367881    0.085986692882375    0.041603479131775  0.0000
  O3     O3        0.019334496304524    0.037109081537697    0.051542869436843  0.0000
  O1     O1        0.124224966885483    0.470862126135687    0.304527059036489  0.0000
  O1     O1        0.369702749134735    0.573362681221993    0.262069618522492  0.0000
  O1     O1        0.884128309465749    0.610532397161329    0.693978417357371  0.0000
  O1     O1        0.637539119480379    0.491898635103606    0.675643181367951  0.0000
  O1     O1        0.264266576006029    0.305536388742765    0.324027301543736  0.0000
  O1     O1        0.235313833716284    0.729112856148347    0.333333520135376  0.0000
  O1     O1        0.778366890405182    0.345648861719438    0.638396780715166  0.0000
  O1     O1        0.747166810933657    0.755596036888859    0.625743602113285  0.0000
  O3     O3        0.191405498094597    0.329352406983356    0.091519586985541  0.0000
  O1     O1        0.329369445041424    0.855089741720982    0.117809360571553  0.0000
  O1     O1        0.865420439231017    0.331627012320699    0.868580550776048  0.0000
  O1     O1        0.652350601773761    0.769061460944994    0.846595962800325  0.0000
  O1     O1        0.820895387160332    0.859784694244887    0.852771374479226  0.0000
  O1     O1        0.690657322586547    0.247137168933433    0.855421299411685  0.0000
  O3     O3        0.147444234414621    0.745909633560811    0.113753297278082  0.0000
  O1     O1        0.351052124243108    0.291261517619652    0.091823785295022  0.0000
  O1     O1        0.625000381444167    0.484210635396155    0.018100453917285  0.0000
  O1     O1        0.877240328061709    0.622839785994350    0.031140020037327  0.0000
  O1     O1        0.367739370578734    0.593680554727973    0.943374781650744  0.0000
  O2     O2        0.129351458871010    0.525857775810660    0.918112558484320  0.0000
  O1     O1        0.766278840071032    0.364494435465469    0.080883254811179  0.0000
  O1     O1        0.733408600546291    0.746715293700725    0.074775099961953  0.0000
  O3     O3        0.252607426250763    0.349013006351484    0.868479077269203  0.0000
  O3     O3        0.236293316023626    0.768815134895566    0.903823679857975  0.0000
