data_c00059.vasp
_audit_creation_method             Generated by GULP
_audit_author_name                 Salvador R. G. Balestra
_symmetry_space_group_name_H-M     'P 1             '
_symmetry_Int_Tables_number        1

loop_
_symmetry_equiv_pos_site_id
_symmetry_equiv_pos_as_xyz
_cell_length_a                       17.9283
_cell_length_b                        7.8793
_cell_length_c                       10.3401
_cell_angle_alpha                   90.3120
_cell_angle_beta                    90.7652
_cell_angle_gamma                   89.5846

loop_
_atom_site_label
_atom_site_type_symbol
_atom_site_fract_x
_atom_site_fract_y
_atom_site_fract_z
_atom_site_charge
  Ge     Ge        0.052090000000021    0.000000000000000    0.372269999999958  0.0000
  Ge     Ge        0.450860150388330    0.960548778442615    0.366831088987071  0.0000
  Ge     Ge        0.942787776949450    0.992609587664814    0.616773673631386  0.0000
  Ge     Ge        0.553323852148649    0.978939653054163    0.628239992326011  0.0000
  Ge     Ge        0.553241387662913    0.979970121402619    0.115859871817152  0.0000
  Ge     Ge        0.941138021309563    0.001623874036729    0.125519612498210  0.0000
  Ge     Ge        0.443324970110143    0.968280770999103    0.872816962224486  0.0000
  Ge     Ge        0.045133042706642    0.995307195474560    0.874786914704601  0.0000
  Ge     Ge        0.150453492673766    0.307322073716674    0.259229552003565  0.0000
  Ge     Ge        0.349701439493002    0.652964899568996    0.257592483832297  0.0000
  Ge     Ge        0.841014813312641    0.305948522307962    0.690712646930203  0.0000
  Ge     Ge        0.826230063597814    0.708376226874362    0.686527410735857  0.0000
  Ge     Ge        0.171311088497085    0.713398541073072    0.258640349176006  0.0000
  Ge     Ge        0.328595365125529    0.247892037283093    0.253436432860096  0.0000
  Ge     Ge        0.665254199564834    0.272350367687958    0.000084191430012  0.0000
  Ge     Ge        0.824044660177114    0.720357833568679    0.003076273910453  0.0000
  Ge     Ge        0.322956416464084    0.250882880341676    0.937593681670273  0.0000
  Ge     Ge        0.167377130355540    0.714660876504063    0.943959051893279  0.0000
  Ge     Ge        0.345587213419029    0.653529874870494    0.941788141112681  0.0000
  Ge     Ge        0.145008237356649    0.310113854626944    0.943205318677960  0.0000
  Ge     Ge        0.844722272501178    0.313149668079205    0.007718300255028  0.0000
  Si     Si        0.650752597578242    0.664601838262119    0.693012090840038  0.0000
  Si     Si        0.664051761847600    0.269610585032680    0.694794617051520  0.0000
  Si     Si        0.649568018048822    0.675072020983036    0.995369514786073  0.0000
  O1     O1        0.086869078606963    0.199133561359423    0.348551933045760  0.0000
  O1     O1        0.415108066582627    0.760872394831205    0.346478503619972  0.0000
  O1     O1        0.897968321002019    0.184123296105646    0.597130193784499  0.0000
  O3     O3        0.594471061925092    0.778490531479104    0.609692561441932  0.0000
  O1     O1        0.875851334057577    0.840087766020875    0.590745577338072  0.0000
  O3     O3        0.616723269248662    0.142868048086445    0.605095185318806  0.0000
  O1     O1        0.121425565823195    0.853028743124127    0.351039286789103  0.0000
  O1     O1        0.380859853136906    0.105818851325511    0.339407177675870  0.0000
  O1     O1        0.021927886435688    0.978830610172140    0.529168700596739  0.0000
  O1     O1        0.479403390509526    0.990509678683570    0.525080540059019  0.0000
  O1     O1        0.972037155720093    0.972756786212914    0.281430654566114  0.0000
  O1     O1        0.529379571144738    0.984108937103002    0.275727201462749  0.0000
  O1     O1        0.969911299994388    0.967264380735821    0.776549135327207  0.0000
  O1     O1        0.519917406478945    0.000252812032236    0.781836278914212  0.0000
  O1     O1        0.614055241775276    0.144425613245727    0.095582274703060  0.0000
  O1     O1        0.867897293193865    0.866713726320058    0.097111656437840  0.0000
  O1     O1        0.372390059944553    0.112942384576198    0.844165481443133  0.0000
  O1     O1        0.116443628887236    0.851132825741015    0.850393770531835  0.0000
  O1     O1        0.406819377725981    0.768954664776564    0.852729198210346  0.0000
  O1     O1        0.080444178969211    0.196290394631368    0.856674355279556  0.0000
  O3     O3        0.589884719138240    0.782835756339226    0.073466231117999  0.0000
  O1     O1        0.908848380607688    0.204957574972276    0.099171615041649  0.0000
  O1     O1        0.471599682874842    0.002941838992813    0.031082322321824  0.0000
  O1     O1        0.016712171487100    0.961031396877711    0.031018207078304  0.0000
  O1     O1        0.160549755686640    0.510054847766626    0.316401215158302  0.0000
  O1     O1        0.340417970026571    0.450658561836852    0.314098063115626  0.0000
  O1     O1        0.842290164731109    0.506337353417591    0.631392758256003  0.0000
  O2     O2        0.653480436038776    0.466814700000366    0.649200558638092  0.0000
  O1     O1        0.235030125175999    0.202373372872561    0.261862497697667  0.0000
  O1     O1        0.264810650789266    0.757624563863831    0.263261792023955  0.0000
  O3     O3        0.751089294584974    0.224363080594449    0.689450657865424  0.0000
  O3     O3        0.731397360663669    0.747930027842854    0.679049387588264  0.0000
  O1     O1        0.117890491763216    0.314722729845726    0.102243233995380  0.0000
  O1     O1        0.377566726492044    0.645667919992396    0.099119064286383  0.0000
  O1     O1        0.872015534438568    0.304691710286723    0.848615999511214  0.0000
  O2     O2        0.626012369367416    0.673082992701480    0.843088821769013  0.0000
  O1     O1        0.853463659941220    0.728348426742834    0.846049064912456  0.0000
  O3     O3        0.636151992984103    0.248381335616999    0.840960714897137  0.0000
  O1     O1        0.138665176536964    0.722176874568136    0.102271972475456  0.0000
  O1     O1        0.355169166688112    0.246899543986528    0.095024279535553  0.0000
  O3     O3        0.653547771797074    0.483539455995477    0.046045821186401  0.0000
  O1     O1        0.841375334793802    0.519486036016229    0.059964962788760  0.0000
  O1     O1        0.334153126806177    0.454512380615532    0.879929851761920  0.0000
  O1     O1        0.153677859499916    0.510948743514884    0.885634407465877  0.0000
  O1     O1        0.757734051117969    0.223233168837548    0.016581325840200  0.0000
  O3     O3        0.729403219482994    0.763948886245466    0.009159874076869  0.0000
  O1     O1        0.229731380804974    0.205439571241731    0.936827509651256  0.0000
  O1     O1        0.260617216333090    0.758473563344134    0.942157407230609  0.0000
