data_c00004.vasp
_audit_creation_method             Generated by GULP
_audit_author_name                 Salvador R. G. Balestra
_symmetry_space_group_name_H-M     'P 1             '
_symmetry_Int_Tables_number        1

loop_
_symmetry_equiv_pos_site_id
_symmetry_equiv_pos_as_xyz
_cell_length_a                       17.6120
_cell_length_b                        7.8475
_cell_length_c                       10.4110
_cell_angle_alpha                   90.4100
_cell_angle_beta                    90.0629
_cell_angle_gamma                   88.2516

loop_
_atom_site_label
_atom_site_type_symbol
_atom_site_fract_x
_atom_site_fract_y
_atom_site_fract_z
_atom_site_charge
  Ge     Ge        0.052090000000021    0.000000000000000    0.372269999999958  0.0000
  Ge     Ge        0.451400985340502    0.940885713402810    0.398200351451877  0.0000
  Ge     Ge        0.952544089347829    0.943819581310926    0.629239493110639  0.0000
  Ge     Ge        0.551403128420430    0.998405214052490    0.654839977908342  0.0000
  Ge     Ge        0.555155464089459    0.996546328054338    0.151141423931367  0.0000
  Ge     Ge        0.948303623718084    0.942460480190168    0.118144055528075  0.0000
  Ge     Ge        0.446667194891281    0.932605253771537    0.906863636090232  0.0000
  Ge     Ge        0.058791844705466    0.990816454068352    0.875109295289972  0.0000
  Ge     Ge        0.147978370432050    0.309966075398016    0.295563308822990  0.0000
  Ge     Ge        0.355512468957405    0.631533834461153    0.282800164705676  0.0000
  Ge     Ge        0.828672250611217    0.232664067255910    0.737695946677968  0.0000
  Ge     Ge        0.676745263355828    0.715111451577895    0.731975875665517  0.0000
  Ge     Ge        0.857156329628483    0.633762714685910    0.739883795938399  0.0000
  Ge     Ge        0.647244990159933    0.313309314837832    0.726815008735814  0.0000
  Ge     Ge        0.175551966017467    0.716280140594352    0.289255027730597  0.0000
  Ge     Ge        0.328436280852773    0.229717779524656    0.289645079687410  0.0000
  Ge     Ge        0.643359803912639    0.314822400390555    0.036441075299637  0.0000
  Ge     Ge        0.849185733118854    0.629805475697410    0.052326235893396  0.0000
  Ge     Ge        0.325148542773372    0.224411034895581    0.979053030722834  0.0000
  Ge     Ge        0.348188553434940    0.619845817861695    0.968947619579704  0.0000
  Ge     Ge        0.825106382001812    0.232236576206803    0.049137047432665  0.0000
  Si     Si        0.170411109283711    0.696138466096566    0.985899878962363  0.0000
  Si     Si        0.146562141858828    0.302262861089847    0.994015712896016  0.0000
  Si     Si        0.671676797623607    0.710081632719448    0.036735450591787  0.0000
  O1     O1        0.084677210810709    0.203400791246459    0.387938383725231  0.0000
  O1     O1        0.424376648040527    0.737629212719088    0.363606739323350  0.0000
  O1     O1        0.876250830521974    0.081438351050563    0.648342302467485  0.0000
  O1     O1        0.627512223671778    0.856709117530874    0.638631353200751  0.0000
  O1     O1        0.926119671633899    0.739672188105827    0.660131918639262  0.0000
  O1     O1        0.584542626453303    0.200106972861063    0.635562325075662  0.0000
  O1     O1        0.127566301247724    0.856231482389117    0.387054930427176  0.0000
  O1     O1        0.376572887316036    0.082755368890595    0.380591519989319  0.0000
  O1     O1        0.978600242865778    0.957272262972479    0.469882643600999  0.0000
  O1     O1        0.477686863193949    0.951432856149812    0.557663361886138  0.0000
  O1     O1        0.023250022658919    0.977076005231972    0.214428282915041  0.0000
  O1     O1        0.529869066145788    0.990563092978720    0.310215522227755  0.0000
  O1     O1        0.031302641586679    0.995896013080089    0.716945055250302  0.0000
  O1     O1        0.520921932668249    0.978414819456052    0.812169891727374  0.0000
  O1     O1        0.579436745063334    0.203865368652211    0.123183707444172  0.0000
  O1     O1        0.909895344077787    0.745957546249386    0.142346501533038  0.0000
  O1     O1        0.369899602055413    0.072987876862125    0.887544874760178  0.0000
  O3     O3        0.126142847989597    0.826747179008894    0.893650056835841  0.0000
  O1     O1        0.409905054597356    0.734483987971764    0.880510783023899  0.0000
  O3     O3        0.090674749042940    0.194519138292731    0.906825952938091  0.0000
  O3     O3        0.630403535734705    0.854568896411464    0.122294286791650  0.0000
  O1     O1        0.874241195446125    0.088432739152763    0.140806694308132  0.0000
  O1     O1        0.476930355269707    0.942232820399606    0.064506978750525  0.0000
  O1     O1        0.978839885915901    0.952257426130599    0.960693744570459  0.0000
  O1     O1        0.159389692507711    0.513646809642251    0.345669306748673  0.0000
  O1     O1        0.343530212397729    0.433281615955943    0.345978782313490  0.0000
  O1     O1        0.845015559041874    0.433205345572335    0.678471079564774  0.0000
  O1     O1        0.660606028429829    0.513386095250484    0.671333591665276  0.0000
  O1     O1        0.232911881357103    0.196105781378934    0.297171279584034  0.0000
  O1     O1        0.270908501450316    0.748724878622425    0.292081202135923  0.0000
  O1     O1        0.732832649546697    0.200942823267645    0.733170013303253  0.0000
  O1     O1        0.771981381873463    0.748831426302389    0.729048010158385  0.0000
  O3     O3        0.114698529859472    0.310180758405806    0.137776707395346  0.0000
  O1     O1        0.380255387367459    0.606589602535576    0.124706196664395  0.0000
  O1     O1        0.859180810880511    0.221196900025692    0.894161446538480  0.0000
  O3     O3        0.643288987438306    0.722304870887459    0.889599172143419  0.0000
  O1     O1        0.882825336171957    0.613022827860434    0.897688067510291  0.0000
  O1     O1        0.612220013624962    0.323678037224102    0.881154753207483  0.0000
  O3     O3        0.142733376055209    0.728912035777843    0.131277028238449  0.0000
  O1     O1        0.359809592068469    0.213494044375902    0.133532656778776  0.0000
  O3     O3        0.653999426585527    0.522588215226742    0.090858403472783  0.0000
  O1     O1        0.839729829443783    0.432113957789592    0.113867066052320  0.0000
  O1     O1        0.342734439246163    0.418236542085536    0.909962433921906  0.0000
  O2     O2        0.155913514297111    0.497683461268088    0.946085134056337  0.0000
  O1     O1        0.729144776766260    0.204890886100314    0.045485183662706  0.0000
  O3     O3        0.761476885025135    0.736986348730062    0.039918205703622  0.0000
  O3     O3        0.228017369910659    0.204021985455247    0.990594001589063  0.0000
  O3     O3        0.259755275064994    0.724788836049214    0.975322344012340  0.0000
