data_c00002.vasp
_audit_creation_method             Generated by GULP
_audit_author_name                 Salvador R. G. Balestra
_symmetry_space_group_name_H-M     'P 1             '
_symmetry_Int_Tables_number        1

loop_
_symmetry_equiv_pos_site_id
_symmetry_equiv_pos_as_xyz
_cell_length_a                       17.8113
_cell_length_b                        7.8869
_cell_length_c                       10.4820
_cell_angle_alpha                   89.8289
_cell_angle_beta                    89.6031
_cell_angle_gamma                   89.4623

loop_
_atom_site_label
_atom_site_type_symbol
_atom_site_fract_x
_atom_site_fract_y
_atom_site_fract_z
_atom_site_charge
  Ge     Ge        0.052090000000021    0.000000000000000    0.372269999999958  0.0000
  Ge     Ge        0.452962251165296    0.019591893739906    0.407306362237470  0.0000
  Ge     Ge        0.956168402148452    0.984459148587830    0.633200223975788  0.0000
  Ge     Ge        0.554705471551691    0.013567254649888    0.663034653123766  0.0000
  Ge     Ge        0.561301953666517    0.020201155135497    0.163655131973949  0.0000
  Ge     Ge        0.948362875243600    0.016843972654507    0.115996639035030  0.0000
  Ge     Ge        0.451678579945991    0.028256159052345    0.918462965214438  0.0000
  Ge     Ge        0.062922135570655    0.999352166758847    0.876740302310540  0.0000
  Ge     Ge        0.174793115674744    0.276094247902653    0.298512101132898  0.0000
  Ge     Ge        0.331954639824898    0.739381427851373    0.300438003503493  0.0000
  Ge     Ge        0.835895773167673    0.278002698048141    0.755373061916654  0.0000
  Ge     Ge        0.674070008676561    0.727825677207274    0.736891825391678  0.0000
  Ge     Ge        0.854229299533465    0.682552373148004    0.736459883445776  0.0000
  Ge     Ge        0.656444018765385    0.319253673619120    0.747567388188215  0.0000
  Ge     Ge        0.153411888959487    0.682834827002826    0.302235610267203  0.0000
  Ge     Ge        0.354445587417109    0.334885459643315    0.294489989702765  0.0000
  Ge     Ge        0.654772152988957    0.338222106332908    0.056585432063932  0.0000
  Ge     Ge        0.850805238756405    0.696402592780603    0.043894504254820  0.0000
  Ge     Ge        0.354336272339486    0.348426982204317    0.982842434333746  0.0000
  Ge     Ge        0.330538075795345    0.748202433545821    0.990265623360214  0.0000
  Ge     Ge        0.174704496642666    0.290311600202671    0.989887736155751  0.0000
  Si     Si        0.154808671542242    0.689281475448187    0.998514817749073  0.0000
  Si     Si        0.670751662464690    0.734616512080508    0.037896339735535  0.0000
  Si     Si        0.833866941819585    0.307226811162243    0.059859698325216  0.0000
  O1     O1        0.124662908057295    0.140312192372296    0.392168728304741  0.0000
  O1     O1        0.382126919421941    0.876856628400396    0.390618364747624  0.0000
  O1     O1        0.889902225271199    0.129962401370608    0.681514281297168  0.0000
  O1     O1        0.621404925547823    0.856844471647191    0.641152266613686  0.0000
  O1     O1        0.917360251333943    0.786959134091851    0.641741511858072  0.0000
  O1     O1        0.597040205149637    0.207678336954659    0.652622770358751  0.0000
  O1     O1        0.087600032473738    0.796721174983921    0.385429100132590  0.0000
  O1     O1        0.420645759400850    0.220980046434785    0.376112448176113  0.0000
  O1     O1        0.980179460247209    0.028737486336223    0.477435635211683  0.0000
  O1     O1        0.480003807389434    0.003910037773454    0.564193433322351  0.0000
  O1     O1        0.020444939185167    0.035051933851605    0.219322683254370  0.0000
  O1     O1        0.532057465414053    0.979774075087349    0.316799163953357  0.0000
  O1     O1        0.037454689872752    0.994692483758998    0.719541609403467  0.0000
  O1     O1        0.523081856647885    0.983099520179688    0.817485779831050  0.0000
  O1     O1        0.598073819747846    0.221688024558909    0.153533397107110  0.0000
  O1     O1        0.903569559021845    0.825744422143926    0.136160045875295  0.0000
  O1     O1        0.417684403031345    0.231267248613781    0.896179425018415  0.0000
  O3     O3        0.096282244500697    0.800052931331284    0.918808163181366  0.0000
  O1     O1        0.376104119407523    0.894315738172694    0.900646959492854  0.0000
  O1     O1        0.127382734750341    0.158038583953785    0.891029680612904  0.0000
  O3     O3        0.631377223173934    0.877930994129944    0.122335561167297  0.0000
  O3     O3        0.880812350975469    0.174030289581350    0.142101337481549  0.0000
  O1     O1        0.482551445873431    0.002697418976239    0.072861034229817  0.0000
  O1     O1        0.983033600891629    0.039463180178578    0.963812733010565  0.0000
  O1     O1        0.162076005635617    0.479781349956565    0.355886180432088  0.0000
  O1     O1        0.343805299078380    0.534877804476687    0.355868392937898  0.0000
  O1     O1        0.847697811091007    0.476010346691607    0.688703027551533  0.0000
  O1     O1        0.664228642140543    0.520493615870056    0.690091292950506  0.0000
  O1     O1        0.269369616890305    0.231919492556795    0.299763945160793  0.0000
  O1     O1        0.237730735779998    0.786464289924988    0.309273376732396  0.0000
  O1     O1        0.743547794766022    0.222239043621339    0.747014691726747  0.0000
  O1     O1        0.766899720160088    0.778089148155004    0.726918002002862  0.0000
  O1     O1        0.143525121162877    0.263823784418051    0.143351631016016  0.0000
  O1     O1        0.362047481624935    0.751977378805681    0.144837545659906  0.0000
  O3     O3        0.861230389488077    0.302831656244481    0.913036727995297  0.0000
  O3     O3        0.641085946812928    0.738967329717314    0.893436539967872  0.0000
  O1     O1        0.885887640762479    0.699720796827866    0.891172426094753  0.0000
  O1     O1        0.623641156120526    0.314238219649815    0.903086219270945  0.0000
  O3     O3        0.125841903846733    0.674652170882441    0.143441633358367  0.0000
  O1     O1        0.383572708215495    0.354058733478907    0.139024073933163  0.0000
  O3     O3        0.653077645122702    0.550531220372208    0.098080242562959  0.0000
  O3     O3        0.848968164875063    0.496185485853906    0.110981299003817  0.0000
  O1     O1        0.347479308011539    0.550492762094449    0.925772150660792  0.0000
  O3     O3        0.163466858590560    0.501211551072255    0.941929302269570  0.0000
  O3     O3        0.746212322475012    0.264307965055288    0.066197182069972  0.0000
  O3     O3        0.759164171536199    0.768607100026749    0.032106199405914  0.0000
  O1     O1        0.268898716345114    0.247850937146033    0.982463922930965  0.0000
  O3     O3        0.234561838626151    0.784637718077034    0.995514773174536  0.0000
