data_c00052.vasp
_audit_creation_method             Generated by GULP
_audit_author_name                 Salvador R. G. Balestra
_symmetry_space_group_name_H-M     'P 1             '
_symmetry_Int_Tables_number        1

loop_
_symmetry_equiv_pos_site_id
_symmetry_equiv_pos_as_xyz
_cell_length_a                       16.9599
_cell_length_b                        7.9915
_cell_length_c                       10.5660
_cell_angle_alpha                   83.6169
_cell_angle_beta                    90.2587
_cell_angle_gamma                   89.8578

loop_
_atom_site_label
_atom_site_type_symbol
_atom_site_fract_x
_atom_site_fract_y
_atom_site_fract_z
_atom_site_charge
  Ge     Ge        0.052090000000021    0.000000000000000    0.372269999999958  0.0000
  Ge     Ge        0.469551909873188    0.002892195527658    0.373924916786752  0.0000
  Ge     Ge        0.957833421119097    0.069662066071636    0.623428732983402  0.0000
  Ge     Ge        0.558560147739547    0.046846408679112    0.639863385915225  0.0000
  Ge     Ge        0.570128679081661    0.939950003262820    0.116454424589691  0.0000
  Ge     Ge        0.960353462414050    0.946082761514207    0.106598527804366  0.0000
  Ge     Ge        0.447704321966014    0.036996519600685    0.879540062789621  0.0000
  Ge     Ge        0.078017592399988    0.045524809397573    0.861719272409749  0.0000
  Ge     Ge        0.170657084445473    0.304629616021576    0.298822290048510  0.0000
  Ge     Ge        0.358981550598541    0.709666561543469    0.298413185112395  0.0000
  Ge     Ge        0.861555637607359    0.370791793016202    0.703423896453665  0.0000
  Ge     Ge        0.844578043002484    0.758317455533694    0.758128486190091  0.0000
  Ge     Ge        0.663546720262899    0.347987037541935    0.714220416295926  0.0000
  Ge     Ge        0.163330996590789    0.713260352709554    0.295017833095832  0.0000
  Ge     Ge        0.667998292263371    0.256813502578308    0.010175536754894  0.0000
  Ge     Ge        0.856641102484546    0.634521373714361    0.073413578756055  0.0000
  Ge     Ge        0.356569316665979    0.351393115443919    0.995863525271901  0.0000
  Ge     Ge        0.169177141214959    0.740911565131263    0.998013676268032  0.0000
  Ge     Ge        0.168384354692404    0.349116661687624    0.986203029756920  0.0000
  Ge     Ge        0.669439317761111    0.619181334146306    0.076004411259872  0.0000
  Ge     Ge        0.862118327124524    0.270693849000618    0.999884461435542  0.0000
  Si     Si        0.662771012712714    0.727405419783116    0.763046871644612  0.0000
  Si     Si        0.354607413937943    0.312360171727411    0.305014550888580  0.0000
  Si     Si        0.358495038594787    0.729955331347923    0.008035121759169  0.0000
  O1     O1        0.112988826842663    0.167829520413825    0.391309384845646  0.0000
  O1     O1        0.412431806020876    0.824560417530952    0.394095492456601  0.0000
  O1     O1        0.916600269795780    0.268076660104110    0.599361083507969  0.0000
  O3     O3        0.601940334120485    0.876513932718836    0.730311579609850  0.0000
  O1     O1        0.889928210884841    0.941166695931180    0.703910931400479  0.0000
  O1     O1        0.613542460105833    0.227167041784628    0.615080641498092  0.0000
  O1     O1        0.107244445128661    0.818248773896201    0.394541476089031  0.0000
  O3     O3        0.411897031814833    0.180486572797581    0.383611364602866  0.0000
  O1     O1        0.977584167396291    0.996621490712077    0.480458256635296  0.0000
  O1     O1        0.538706361497874    0.990194167461340    0.491470771365639  0.0000
  O1     O1        0.014355913981081    0.028237277401380    0.220718246339996  0.0000
  O1     O1        0.514245356713098    0.019810468462635    0.228222156476211  0.0000
  O1     O1        0.045491401274936    0.063039564087806    0.708400023203322  0.0000
  O1     O1        0.472408262024128    0.071847397987681    0.722604156145009  0.0000
  O1     O1        0.653270487925412    0.069231042012677    0.095799308617154  0.0000
  O1     O1        0.921248546486654    0.752446878962234    0.154242378993479  0.0000
  O1     O1        0.420765852549345    0.228084751986072    0.924960944834260  0.0000
  O1     O1        0.156945364570098    0.903371937486785    0.882410427719539  0.0000
  O3     O3        0.371496905412057    0.886761913392891    0.903186577223385  0.0000
  O1     O1        0.104781032016740    0.238682591828945    0.900087740543599  0.0000
  O1     O1        0.606668734640160    0.741222494483876    0.154574506576266  0.0000
  O1     O1        0.879595884986550    0.081891960377224    0.081446007258288  0.0000
  O1     O1        0.523612050582738    0.951430804444222    0.971913137423180  0.0000
  O1     O1        0.011032053967330    0.945131373270124    0.966395986847440  0.0000
  O1     O1        0.138758260975934    0.505548162249494    0.309717237581473  0.0000
  O3     O3        0.383406689992702    0.499276839645638    0.323163703838611  0.0000
  O1     O1        0.879656701398101    0.582688438414143    0.694695140838668  0.0000
  O3     O3        0.636298173714609    0.558389222213618    0.703313008960139  0.0000
  O3     O3        0.266246646519713    0.288855453494729    0.357399883782821  0.0000
  O1     O1        0.261453267308159    0.744868905492994    0.325048459763950  0.0000
  O1     O1        0.762441865422624    0.334860065653197    0.683930864520511  0.0000
  O3     O3        0.747622179973805    0.784268496177645    0.707337852565884  0.0000
  O1     O1        0.167102803229469    0.263405869403447    0.142757070529266  0.0000
  O3     O3        0.390440163221918    0.779812201154770    0.143523534523853  0.0000
  O1     O1        0.898496163253058    0.277125731396082    0.847995371715139  0.0000
  O3     O3        0.674772812442528    0.685568336153416    0.914505027355168  0.0000
  O1     O1        0.854695782447796    0.734035147218190    0.919763925380871  0.0000
  O1     O1        0.630531903839998    0.252277070052896    0.859005330001947  0.0000
  O1     O1        0.136482896542156    0.795887384244412    0.141990495015910  0.0000
  O3     O3        0.352224563416997    0.282420271886797    0.156614956512638  0.0000
  O1     O1        0.633017743285262    0.418457994750998    0.090280092283445  0.0000
  O1     O1        0.896211412377905    0.436624134942290    0.076004921673385  0.0000
  O3     O3        0.394906305472330    0.555484197431444    0.972089255539006  0.0000
  O1     O1        0.131662381415589    0.551468771955291    0.964789664375215  0.0000
  O1     O1        0.763715933213728    0.322481911164963    0.977452014316901  0.0000
  O1     O1        0.763511847905706    0.630466770140320    0.137299942570306  0.0000
  O1     O1        0.263840562224159    0.336406554997379    0.931988808070015  0.0000
  O3     O3        0.266736455869753    0.680227639016807    0.034741829546803  0.0000
