data_c00015.vasp
_audit_creation_method             Generated by GULP
_audit_author_name                 Salvador R. G. Balestra
_symmetry_space_group_name_H-M     'P 1             '
_symmetry_Int_Tables_number        1

loop_
_symmetry_equiv_pos_site_id
_symmetry_equiv_pos_as_xyz
_cell_length_a                       17.7943
_cell_length_b                        7.8075
_cell_length_c                       10.1626
_cell_angle_alpha                   88.4603
_cell_angle_beta                    90.5450
_cell_angle_gamma                   90.6671

loop_
_atom_site_label
_atom_site_type_symbol
_atom_site_fract_x
_atom_site_fract_y
_atom_site_fract_z
_atom_site_charge
  Ge     Ge        0.052090000000021    0.000000000000000    0.372269999999958  0.0000
  Ge     Ge        0.443310030897493    0.056444913003638    0.351224838801923  0.0000
  Ge     Ge        0.947175091630544    0.070917282534513    0.617403335050802  0.0000
  Ge     Ge        0.545317405088529    0.035078992572779    0.609179369667399  0.0000
  Ge     Ge        0.558470690804634    0.015363904539849    0.121468763833542  0.0000
  Ge     Ge        0.941019795524056    0.070584233583517    0.128347132114093  0.0000
  Ge     Ge        0.447409086025959    0.087271967512286    0.874105818242196  0.0000
  Ge     Ge        0.047876288671542    0.024425078993115    0.878986713619534  0.0000
  Ge     Ge        0.174732038284735    0.285576760160485    0.253025199774585  0.0000
  Ge     Ge        0.328595809936081    0.758491549812625    0.258500907396944  0.0000
  Ge     Ge        0.848991205196086    0.386389999597892    0.686834719306983  0.0000
  Ge     Ge        0.644452208760250    0.717075631275760    0.680521154556486  0.0000
  Ge     Ge        0.821868864307967    0.791890210452208    0.680371134020562  0.0000
  Ge     Ge        0.670086635269584    0.308928559414528    0.688690226969134  0.0000
  Ge     Ge        0.146875805864654    0.691997188738957    0.258464546193046  0.0000
  Ge     Ge        0.672297422703077    0.312283288752103    0.005998143998283  0.0000
  Ge     Ge        0.821915093635497    0.792462639912814    0.001637559454398  0.0000
  Ge     Ge        0.341391747076825    0.399017278580891    0.917821978508243  0.0000
  Ge     Ge        0.326034371591387    0.796017883597048    0.943063274319015  0.0000
  Ge     Ge        0.169691542151824    0.317097810524040    0.927016063221674  0.0000
  Ge     Ge        0.851595881178393    0.390309606378984    0.006752580237103  0.0000
  Si     Si        0.345066679201080    0.367648991080849    0.241195396659416  0.0000
  Si     Si        0.150651711413633    0.718770290589082    0.947280450696911  0.0000
  Si     Si        0.647488920709963    0.712183615633223    0.995045851430971  0.0000
  O1     O1        0.128677582670436    0.127152631736458    0.338223316934381  0.0000
  O1     O1        0.376148762718703    0.899630673634227    0.356635866122545  0.0000
  O1     O1        0.912678346786119    0.274832238643342    0.597753109804729  0.0000
  O1     O1        0.577485685983512    0.829071783501681    0.593956074414130  0.0000
  O1     O1        0.874726050801148    0.929384700824549    0.585252377131201  0.0000
  O1     O1        0.620446247791091    0.174313079514207    0.590165246550240  0.0000
  O1     O1        0.079685187305074    0.793918987494254    0.345733587063054  0.0000
  O3     O3        0.415297881928289    0.250244358901369    0.278238063903614  0.0000
  O1     O1        0.026977831008464    0.029280963963933    0.533410738942120  0.0000
  O1     O1        0.470053739064934    0.087140028325454    0.513228271652110  0.0000
  O1     O1        0.970333902656816    0.051363228286957    0.289384920496199  0.0000
  O1     O1        0.526310155150218    0.998785995711652    0.280234353877272  0.0000
  O1     O1        0.970116123089394    0.040795809261655    0.782574882005209  0.0000
  O1     O1        0.518832376559143    0.048300635235782    0.772089220845055  0.0000
  O1     O1        0.627665912213976    0.169623420515632    0.110033384113547  0.0000
  O1     O1        0.863844390700150    0.943634092225496    0.096373762458724  0.0000
  O1     O1        0.415952182119717    0.295939514047833    0.857051593321803  0.0000
  O3     O3        0.094659946012094    0.832476438563268    0.858808357855336  0.0000
  O1     O1        0.370316442485179    0.954710348199232    0.854032187514779  0.0000
  O1     O1        0.107459081037676    0.194615577792105    0.841631428811187  0.0000
  O3     O3        0.587089246491354    0.813889730658911    0.076763809030578  0.0000
  O1     O1        0.917306895941894    0.280531383438919    0.097600793936351  0.0000
  O1     O1        0.479743938071790    0.070423077501047    0.033278529521131  0.0000
  O1     O1        0.018534047847458    0.019306388564328    0.039774192712061  0.0000
  O1     O1        0.151084463541119    0.482139313176632    0.310905110427008  0.0000
  O3     O3        0.348114330515973    0.549185953459151    0.312495538830354  0.0000
  O1     O1        0.834500823461739    0.587532608787894    0.623531680058273  0.0000
  O1     O1        0.656000256491185    0.514972406616693    0.626812247455110  0.0000
  O3     O3        0.270543527346482    0.258359420456395    0.278732506693395  0.0000
  O1     O1        0.233698030955126    0.788527926365951    0.272353699005275  0.0000
  O1     O1        0.764948951904340    0.272365175453027    0.690136883045620  0.0000
  O1     O1        0.727585634007442    0.832712877598748    0.671241536295569  0.0000
  O1     O1        0.151477016774516    0.269824371950210    0.089781087774237  0.0000
  O1     O1        0.360150428724636    0.804598107563764    0.102289695767772  0.0000
  O1     O1        0.880764020261275    0.404777125883404    0.846205839096997  0.0000
  O3     O3        0.619674056405819    0.695564676351825    0.845307169023920  0.0000
  O1     O1        0.851700523037344    0.804289562328435    0.842028108721386  0.0000
  O1     O1        0.638696406303512    0.287170133681270    0.848945934366268  0.0000
  O3     O3        0.119306850910173    0.691777347670389    0.094400897060630  0.0000
  O3     O3        0.337156356692848    0.424213669403888    0.088002936305769  0.0000
  O3     O3        0.659088707027584    0.522115204349652    0.055378744316390  0.0000
  O1     O1        0.842324450708263    0.592043426973191    0.065983775397770  0.0000
  O1     O1        0.343298363093009    0.608083937366808    0.864425593787855  0.0000
  O3     O3        0.161188929397564    0.534369286445055    0.886287800226698  0.0000
  O1     O1        0.767137622124014    0.279984444048145    0.010358637688279  0.0000
  O3     O3        0.725414474477441    0.819897818879292    0.999042495239247  0.0000
  O1     O1        0.261065034458828    0.281783060240413    0.885315251522191  0.0000
  O3     O3        0.229869123610061    0.821828712129316    0.955521216659373  0.0000
