data_c00042.vasp
_audit_creation_method             Generated by GULP
_audit_author_name                 Salvador R. G. Balestra
_symmetry_space_group_name_H-M     'P 1             '
_symmetry_Int_Tables_number        1

loop_
_symmetry_equiv_pos_site_id
_symmetry_equiv_pos_as_xyz
_cell_length_a                       17.8960
_cell_length_b                        7.8220
_cell_length_c                       10.4379
_cell_angle_alpha                   89.4907
_cell_angle_beta                    90.4428
_cell_angle_gamma                   89.3802

loop_
_atom_site_label
_atom_site_type_symbol
_atom_site_fract_x
_atom_site_fract_y
_atom_site_fract_z
_atom_site_charge
  Ge     Ge        0.052090000000021    0.000000000000000    0.372269999999958  0.0000
  Ge     Ge        0.447490646699751    0.026867867808456    0.402512425364646  0.0000
  Ge     Ge        0.947723260503626    0.985337475991350    0.622563391853783  0.0000
  Ge     Ge        0.552168986070625    0.030368226130548    0.658374193523430  0.0000
  Ge     Ge        0.554320206607609    0.030539797113244    0.157322701776767  0.0000
  Ge     Ge        0.949267638270884    0.999153288010787    0.115248726030216  0.0000
  Ge     Ge        0.447160242868364    0.028643763463244    0.910765849562830  0.0000
  Ge     Ge        0.056093746658767    0.008120974109414    0.871073174407780  0.0000
  Ge     Ge        0.172013495701159    0.278649417454982    0.293486632664023  0.0000
  Ge     Ge        0.331493133033959    0.736593491172840    0.295517520119607  0.0000
  Ge     Ge        0.826729464289574    0.271396622784217    0.738339860588300  0.0000
  Ge     Ge        0.670041417437854    0.738122289794793    0.725940124084467  0.0000
  Ge     Ge        0.849595295076973    0.675506592969484    0.724271341606759  0.0000
  Ge     Ge        0.153798044083730    0.687071820723266    0.301762254281777  0.0000
  Ge     Ge        0.647945649054156    0.343687498450812    0.042256350342192  0.0000
  Ge     Ge        0.851430213027191    0.683394892770715    0.037305473457754  0.0000
  Ge     Ge        0.347851850575289    0.347373255899841    0.979746736977457  0.0000
  Ge     Ge        0.326243561504030    0.753930495284293    0.984821542633790  0.0000
  Ge     Ge        0.170101573726757    0.294754452638803    0.983616991221274  0.0000
  Ge     Ge        0.673053916095305    0.753593798193161    0.035873256680409  0.0000
  Ge     Ge        0.825334309212537    0.278536629094286    0.051026762571813  0.0000
  Si     Si        0.651785006153701    0.336377182318722    0.736415881605000  0.0000
  Si     Si        0.346726615654639    0.333014827586272    0.285480812256157  0.0000
  Si     Si        0.151748717849720    0.699382757337740    0.995333088098314  0.0000
  O1     O1        0.124487586226245    0.141935000945154    0.390293580539119  0.0000
  O1     O1        0.386843028886024    0.859580468853018    0.390502659757911  0.0000
  O1     O1        0.873645887902031    0.118645833351737    0.655312149846930  0.0000
  O1     O1        0.616564754601533    0.870098979568447    0.629549140070360  0.0000
  O1     O1        0.914158870538520    0.781684037584869    0.634361424077219  0.0000
  O3     O3        0.595057914042752    0.228129799509106    0.651057181835797  0.0000
  O1     O1        0.089658127450658    0.797851336511198    0.389479137396376  0.0000
  O3     O3        0.405852991721025    0.221692853260611    0.366115129030461  0.0000
  O1     O1        0.977153712881668    0.028100974113494    0.468841798228988  0.0000
  O1     O1        0.476253490547540    0.030554791129482    0.559673298015570  0.0000
  O1     O1        0.022227240190014    0.029491795127481    0.216211886038339  0.0000
  O1     O1        0.526938949311855    0.004847516032035    0.313347915348457  0.0000
  O1     O1        0.026667723120754    0.009439504474446    0.714442610500851  0.0000
  O1     O1        0.519247314249964    0.993102330389169    0.810637033222950  0.0000
  O1     O1        0.580515464157546    0.238115829221309    0.124281329492393  0.0000
  O1     O1        0.914898549352400    0.795225311077398    0.125702758679303  0.0000
  O1     O1        0.413504818866778    0.234975491909157    0.897146560882021  0.0000
  O3     O3        0.092236333952614    0.808697556386163    0.913787595451759  0.0000
  O1     O1        0.371507637337968    0.895673169563057    0.889843813539880  0.0000
  O1     O1        0.119921382780926    0.169162232142770    0.882931126919624  0.0000
  O1     O1        0.629491548553448    0.897654719162258    0.131920326911925  0.0000
  O1     O1        0.876284116543153    0.139645729120784    0.143468489162618  0.0000
  O1     O1        0.478976990122485    0.982289481941758    0.063510092957300  0.0000
  O1     O1        0.978751694175656    0.043527096478716    0.961729321501644  0.0000
  O1     O1        0.158349256292266    0.480550454094725    0.353273364634507  0.0000
  O3     O3        0.337963262371445    0.522078418479794    0.341840195031595  0.0000
  O1     O1        0.842998920646153    0.469381571902382    0.672004869576622  0.0000
  O3     O3        0.660393352954506    0.525841919480219    0.679818823497778  0.0000
  O3     O3        0.267297259181007    0.236958233362644    0.288794846592454  0.0000
  O1     O1        0.238550425519494    0.787770000495170    0.311473571276678  0.0000
  O3     O3        0.731200146373059    0.236463200677809    0.738174690809057  0.0000
  O1     O1        0.763746850312936    0.777904176363031    0.715465656955066  0.0000
  O1     O1        0.140261662131341    0.265016505590216    0.137761594611891  0.0000
  O1     O1        0.358708149768339    0.763566802384653    0.140238649058281  0.0000
  O1     O1        0.855302352733657    0.269794758159649    0.894742568476571  0.0000
  O1     O1        0.640777216913339    0.766905614646866    0.880584949412826  0.0000
  O1     O1        0.880605400365139    0.674257911762449    0.880786106808904  0.0000
  O3     O3        0.622185321589245    0.348012279457731    0.881423013026204  0.0000
  O3     O3        0.125361546959076    0.687250824110739    0.141793780355888  0.0000
  O3     O3        0.374701977602427    0.348592459633722    0.140204738237878  0.0000
  O1     O1        0.657298547444126    0.549125309485968    0.093141809543496  0.0000
  O1     O1        0.839460099439452    0.485130534881657    0.102177086863714  0.0000
  O1     O1        0.342019438075222    0.552430661114561    0.924942947006038  0.0000
  O3     O3        0.160363160803664    0.509608979737312    0.940199071493627  0.0000
  O1     O1        0.731831769950609    0.236211444835079    0.059036897735903  0.0000
  O1     O1        0.767020322412820    0.791795511168119    0.034319057226890  0.0000
  O1     O1        0.263223142130943    0.246613831608659    0.970610595799023  0.0000
  O3     O3        0.231085227642196    0.795035638362503    0.989740092210976  0.0000
