data_c00049.vasp
_audit_creation_method             Generated by GULP
_audit_author_name                 Salvador R. G. Balestra
_symmetry_space_group_name_H-M     'P 1             '
_symmetry_Int_Tables_number        1

loop_
_symmetry_equiv_pos_site_id
_symmetry_equiv_pos_as_xyz
_cell_length_a                       17.7188
_cell_length_b                        7.8206
_cell_length_c                       10.2189
_cell_angle_alpha                   88.3038
_cell_angle_beta                    90.5235
_cell_angle_gamma                   90.7846

loop_
_atom_site_label
_atom_site_type_symbol
_atom_site_fract_x
_atom_site_fract_y
_atom_site_fract_z
_atom_site_charge
  Ge     Ge        0.052090000000021    0.000000000000000    0.372269999999958  0.0000
  Ge     Ge        0.445362767338259    0.047531683944653    0.327629995819364  0.0000
  Ge     Ge        0.945226538991513    0.067827822692371    0.618307949913222  0.0000
  Ge     Ge        0.552743429258769    0.020165058130788    0.581908718055175  0.0000
  Ge     Ge        0.549976355173966    0.987507564531734    0.076156446305308  0.0000
  Ge     Ge        0.943282458745049    0.046521393975477    0.123483873702701  0.0000
  Ge     Ge        0.444172606173906    0.056964483908036    0.825598951685478  0.0000
  Ge     Ge        0.048272582129104    0.999522521156146    0.874018652406507  0.0000
  Ge     Ge        0.172950626839850    0.285021638743071    0.260745934235293  0.0000
  Ge     Ge        0.325415041525078    0.758883493857987    0.258706183273761  0.0000
  Ge     Ge        0.848411363956636    0.381956758387584    0.684047263746441  0.0000
  Ge     Ge        0.823304697007874    0.784405437537510    0.696425850136249  0.0000
  Ge     Ge        0.669082304375425    0.311737164450873    0.687779827045804  0.0000
  Ge     Ge        0.144754130407723    0.685514739520507    0.258314211425928  0.0000
  Ge     Ge        0.672555195015325    0.276240423884377    0.003400496850932  0.0000
  Ge     Ge        0.827332571655588    0.754532141208416    0.013512481188332  0.0000
  Ge     Ge        0.351069765241775    0.363629411810302    0.949037823992583  0.0000
  Ge     Ge        0.146431149023557    0.683136938995481    0.938993640292949  0.0000
  Ge     Ge        0.324423214460223    0.770375403003624    0.942211061879549  0.0000
  Ge     Ge        0.173327903832931    0.280315081520346    0.943120795980839  0.0000
  Ge     Ge        0.649545936862146    0.676869993666826    0.019371078137000  0.0000
  Si     Si        0.647752185169732    0.707936811331650    0.705580981439494  0.0000
  Si     Si        0.348849665837429    0.362811116148120    0.260339096418959  0.0000
  Si     Si        0.848299297888641    0.354976680237550    0.995825105620305  0.0000
  O1     O1        0.130330275698519    0.129189553768124    0.354928787913313  0.0000
  O1     O1        0.376521077067605    0.893617336814868    0.355074708499513  0.0000
  O1     O1        0.913711499636310    0.273598817871870    0.596826622959227  0.0000
  O3     O3        0.585270501263376    0.820468379731778    0.631156902907314  0.0000
  O1     O1        0.868503948831250    0.932635937852072    0.598983106686462  0.0000
  O1     O1        0.619614567652960    0.179413168853749    0.587428519516032  0.0000
  O1     O1        0.077447621180820    0.794688050786204    0.340257025224042  0.0000
  O3     O3        0.407761910143216    0.249884644164615    0.344644418836856  0.0000
  O1     O1        0.022391332820719    0.014905386194484    0.532093227262262  0.0000
  O1     O1        0.523758670024023    0.011609836381301    0.420694309417101  0.0000
  O1     O1        0.974391574278824    0.063284302726666    0.282615975683763  0.0000
  O1     O1        0.474380682721375    0.035955960819218    0.166921048768985  0.0000
  O1     O1        0.971475065027860    0.046291525602522    0.781634284918329  0.0000
  O1     O1        0.472420013247991    0.066785483455519    0.665223670986157  0.0000
  O1     O1        0.626202672022340    0.124973331550466    0.095432633889163  0.0000
  O1     O1        0.877293465597520    0.884217485180206    0.115183957409541  0.0000
  O1     O1        0.420109373391303    0.260053990815702    0.870171036517430  0.0000
  O1     O1        0.081831904792852    0.797486799588433    0.848738300997442  0.0000
  O1     O1        0.368971594417578    0.917964292772914    0.842642540028413  0.0000
  O1     O1        0.121957859751070    0.143315748602763    0.850344090902194  0.0000
  O1     O1        0.583331944608519    0.783322911858989    0.104022501330494  0.0000
  O3     O3        0.909206456776237    0.245568614444820    0.076319023848696  0.0000
  O1     O1        0.521367231253045    0.992844108701399    0.914515928986293  0.0000
  O1     O1        0.021823145049056    0.001479122611601    0.036297405381969  0.0000
  O1     O1        0.153986674151138    0.481346302038734    0.322911448816807  0.0000
  O3     O3        0.337982909195278    0.548860182026875    0.317502228446400  0.0000
  O1     O1        0.841300141679274    0.588800159815209    0.630441128133368  0.0000
  O3     O3        0.657742844714399    0.525578964761616    0.639289613921035  0.0000
  O3     O3        0.269723289194831    0.258031305648170    0.257642387469035  0.0000
  O1     O1        0.230220710915206    0.794282574140466    0.264324947690871  0.0000
  O1     O1        0.763708615054548    0.273260788326859    0.676107991747375  0.0000
  O3     O3        0.726735324319470    0.814275035547187    0.700967133326766  0.0000
  O1     O1        0.141570035647430    0.267635657920130    0.102116130852768  0.0000
  O1     O1        0.357017503416353    0.787203782634225    0.100760538032852  0.0000
  O3     O3        0.875499680900175    0.387936343790878    0.847906575567305  0.0000
  O3     O3        0.625162379230268    0.665653415730423    0.854349897525592  0.0000
  O1     O1        0.856376481077681    0.793293924814261    0.855419892851961  0.0000
  O1     O1        0.638804663402317    0.270516315974631    0.844789216872588  0.0000
  O1     O1        0.117434829584899    0.660054241688607    0.099033227621717  0.0000
  O3     O3        0.376791906907535    0.387994894810850    0.111546459668023  0.0000
  O1     O1        0.656579382618057    0.470151473065899    0.073509617520930  0.0000
  O3     O3        0.837766943714630    0.538992329804087    0.058384682366126  0.0000
  O1     O1        0.339197529120164    0.567024942651648    0.886808997846141  0.0000
  O1     O1        0.160416210858612    0.485690205036813    0.879424898200785  0.0000
  O3     O3        0.769352385506365    0.248602278932512    0.996395060322471  0.0000
  O1     O1        0.732919000818740    0.791274348705525    0.027894387476989  0.0000
  O1     O1        0.268628047600287    0.244729934634198    0.939302783697947  0.0000
  O1     O1        0.229120205270578    0.802434480615242    0.942454053049083  0.0000
