data_c00035.vasp
_audit_creation_method             Generated by GULP
_audit_author_name                 Salvador R. G. Balestra
_symmetry_space_group_name_H-M     'P 1             '
_symmetry_Int_Tables_number        1

loop_
_symmetry_equiv_pos_site_id
_symmetry_equiv_pos_as_xyz
_cell_length_a                       17.6138
_cell_length_b                        7.8624
_cell_length_c                       10.2757
_cell_angle_alpha                   89.6968
_cell_angle_beta                    90.4816
_cell_angle_gamma                   91.8956

loop_
_atom_site_label
_atom_site_type_symbol
_atom_site_fract_x
_atom_site_fract_y
_atom_site_fract_z
_atom_site_charge
  Ge     Ge        0.052090000000021    0.000000000000000    0.372269999999958  0.0000
  Ge     Ge        0.448160485938059    0.066980072048802    0.322535576844222  0.0000
  Ge     Ge        0.947609924464190    0.066718378626018    0.620324638583638  0.0000
  Ge     Ge        0.550133258374166    0.015086532131284    0.580176552374773  0.0000
  Ge     Ge        0.554893634546963    0.012887800994111    0.071484002058701  0.0000
  Ge     Ge        0.941606100708784    0.057012201090725    0.126964836290192  0.0000
  Ge     Ge        0.444679643926616    0.063406081142710    0.826633235954689  0.0000
  Ge     Ge        0.047193731487485    0.998071612204120    0.878020064898475  0.0000
  Ge     Ge        0.172915211253756    0.291522695545887    0.257809791441679  0.0000
  Ge     Ge        0.328132247718562    0.768065323685083    0.258457381745388  0.0000
  Ge     Ge        0.853844906979386    0.379718956472110    0.694869052802295  0.0000
  Ge     Ge        0.642827419621477    0.703956306030596    0.696699906736865  0.0000
  Ge     Ge        0.824497170727008    0.781418123818421    0.696592586105599  0.0000
  Ge     Ge        0.672646544837991    0.303137208615299    0.700384042798367  0.0000
  Ge     Ge        0.145909993160396    0.689126396496194    0.260522772102031  0.0000
  Ge     Ge        0.352743451173595    0.372270240784113    0.947572873549710  0.0000
  Ge     Ge        0.145070630788981    0.684939477100414    0.943203832274473  0.0000
  Ge     Ge        0.325620156605171    0.774498355333148    0.943982246433787  0.0000
  Ge     Ge        0.173004451087195    0.285854802126697    0.941275045086334  0.0000
  Ge     Ge        0.649024489829408    0.695626369157290    0.010470608989625  0.0000
  Ge     Ge        0.852327736971815    0.376487479630654    0.008394113516542  0.0000
  Si     Si        0.350089608869965    0.374914516723786    0.257748408566323  0.0000
  Si     Si        0.672345957131937    0.307158478980962    0.008803882211586  0.0000
  Si     Si        0.828512839942504    0.769685400345793    0.004461633586381  0.0000
  O1     O1        0.129203271342452    0.134341743152746    0.346765854518243  0.0000
  O1     O1        0.380454769663822    0.908461961673732    0.352017156105773  0.0000
  O1     O1        0.915736864521860    0.269167195390927    0.601182240007385  0.0000
  O1     O1        0.576386129604195    0.809407229821188    0.607473754025420  0.0000
  O1     O1        0.872672279314686    0.922883490618734    0.599247049509738  0.0000
  O1     O1        0.626570729468730    0.148130384147371    0.613519191980369  0.0000
  O1     O1        0.079603080172248    0.796325111549325    0.345872989343730  0.0000
  O3     O3        0.409123790486730    0.265743590002274    0.339886428173805  0.0000
  O1     O1        0.025603628218944    0.022725480554973    0.532395980078758  0.0000
  O1     O1        0.525827192675155    0.041969633485328    0.418879202583753  0.0000
  O1     O1        0.971218310223967    0.047039579736878    0.286490166609822  0.0000
  O1     O1        0.478346400493911    0.053504928167539    0.163597471544777  0.0000
  O1     O1        0.971877922986587    0.042709187726568    0.783131726918358  0.0000
  O1     O1        0.470877943245326    0.065350401692800    0.666094371979963  0.0000
  O3     O3        0.627804178313891    0.165206573737745    0.092155556396913  0.0000
  O3     O3        0.867658046426891    0.913219175837292    0.094253107567531  0.0000
  O1     O1        0.421792231402883    0.266938560192284    0.869911484501630  0.0000
  O1     O1        0.079974196107389    0.796486719970134    0.856016973029646  0.0000
  O1     O1        0.368631270753807    0.924422168601986    0.846509853775229  0.0000
  O1     O1        0.122355227368478    0.140822746557802    0.851388321991088  0.0000
  O1     O1        0.593618571162388    0.818224068011933    0.104909028341254  0.0000
  O1     O1        0.911175276364022    0.261078692821978    0.103788635338498  0.0000
  O1     O1        0.523174369833908    0.003405091992712    0.912767711364147  0.0000
  O1     O1        0.020263692671578    0.014338309003390    0.038793905991795  0.0000
  O1     O1        0.154544346222414    0.487123145324021    0.322124745964270  0.0000
  O3     O3        0.340486259708464    0.561129773702229    0.316252807075913  0.0000
  O1     O1        0.841760028972535    0.580265034948833    0.638389215408581  0.0000
  O1     O1        0.654695681833479    0.502219491989460    0.638890897045691  0.0000
  O3     O3        0.270307491420041    0.267838632596446    0.255506341280435  0.0000
  O1     O1        0.232431966700726    0.799205900417115    0.265443679983850  0.0000
  O1     O1        0.767717800662320    0.268895574956182    0.696243041633488  0.0000
  O1     O1        0.729359116979699    0.814080164562847    0.690865390845877  0.0000
  O1     O1        0.141673228666837    0.277721415553654    0.099798014685720  0.0000
  O1     O1        0.359281636372555    0.793996750065223    0.101201490474902  0.0000
  O1     O1        0.886766659297197    0.380890566532365    0.853474937987121  0.0000
  O1     O1        0.613051256266803    0.691243800439888    0.855071406341341  0.0000
  O3     O3        0.858383474979941    0.785815122482344    0.856827085575037  0.0000
  O3     O3        0.641503255436416    0.300379617304194    0.860499229666918  0.0000
  O1     O1        0.116066988974071    0.666511231196723    0.102326584122134  0.0000
  O3     O3        0.377657833901199    0.399537756966639    0.109689688430656  0.0000
  O3     O3        0.655732464375881    0.491311736290462    0.069821733508252  0.0000
  O3     O3        0.847472626434257    0.584307469787134    0.062200852401345  0.0000
  O1     O1        0.342183367688276    0.573084280076049    0.886353230797799  0.0000
  O1     O1        0.157750113905933    0.488049935293089    0.880651921691275  0.0000
  O3     O3        0.762152440562856    0.281008955026478    0.008655517506437  0.0000
  O3     O3        0.738624872081751    0.791785983317256    0.000127037666813  0.0000
  O1     O1        0.268788045860913    0.254603648204198    0.935651556571607  0.0000
  O1     O1        0.229708464367463    0.801768316661510    0.946279308975166  0.0000
