data_c00033.vasp
_audit_creation_method             Generated by GULP
_audit_author_name                 Salvador R. G. Balestra
_symmetry_space_group_name_H-M     'P 1             '
_symmetry_Int_Tables_number        1

loop_
_symmetry_equiv_pos_site_id
_symmetry_equiv_pos_as_xyz
_cell_length_a                       17.6869
_cell_length_b                        7.8406
_cell_length_c                       10.3115
_cell_angle_alpha                   88.7293
_cell_angle_beta                    90.0686
_cell_angle_gamma                   91.1675

loop_
_atom_site_label
_atom_site_type_symbol
_atom_site_fract_x
_atom_site_fract_y
_atom_site_fract_z
_atom_site_charge
  Ge     Ge        0.052090000000021    0.000000000000000    0.372269999999958  0.0000
  Ge     Ge        0.446355480328212    0.056309875362319    0.401087886753487  0.0000
  Ge     Ge        0.947783872392985    0.057522568769256    0.624340800172622  0.0000
  Ge     Ge        0.549206079187482    0.014241142478512    0.655531703406481  0.0000
  Ge     Ge        0.555690729423814    0.008764652816405    0.159471326629820  0.0000
  Ge     Ge        0.946832792877507    0.058459524464390    0.119195711724064  0.0000
  Ge     Ge        0.447986393686689    0.076768609990864    0.912302130673606  0.0000
  Ge     Ge        0.054369948739377    0.015617987483320    0.872100278826292  0.0000
  Ge     Ge        0.173840868527529    0.286093528994392    0.293095630086559  0.0000
  Ge     Ge        0.329405920989408    0.759941624625379    0.297785839580971  0.0000
  Ge     Ge        0.853762645388882    0.369068655619639    0.739030091284453  0.0000
  Ge     Ge        0.644521614912803    0.696328950058670    0.729010476019454  0.0000
  Ge     Ge        0.825603358364459    0.771411521333059    0.734408470212838  0.0000
  Ge     Ge        0.674036825376500    0.292804044732968    0.733692656082944  0.0000
  Ge     Ge        0.150044251305675    0.687374075639127    0.306139186040206  0.0000
  Ge     Ge        0.824764200545378    0.771154175349542    0.047967598090732  0.0000
  Ge     Ge        0.348993595154651    0.388899741787142    0.972140247124591  0.0000
  Ge     Ge        0.325001243989502    0.788947517058675    0.984087410940672  0.0000
  Ge     Ge        0.170045265535195    0.310965076070340    0.979261479720411  0.0000
  Ge     Ge        0.643935262595134    0.692671379007977    0.040998312682933  0.0000
  Ge     Ge        0.847155524271967    0.371819302880358    0.054780688946804  0.0000
  Si     Si        0.349916166773845    0.364097284065990    0.282186524638385  0.0000
  Si     Si        0.671073871733293    0.294999426070226    0.041427627678845  0.0000
  Si     Si        0.148859431997224    0.708726394447078    0.996102763057138  0.0000
  O1     O1        0.128782729587090    0.137153664525787    0.389236099171196  0.0000
  O1     O1        0.381073248001249    0.892808212079038    0.394038418969658  0.0000
  O1     O1        0.922146501021737    0.261594696870056    0.658570111725929  0.0000
  O1     O1        0.582355767932781    0.812077463282894    0.635752666590038  0.0000
  O1     O1        0.871395716054870    0.921869461622860    0.639752958661082  0.0000
  O1     O1        0.624860867284673    0.154984566190762    0.638974313795151  0.0000
  O1     O1        0.084312373653403    0.795638679486951    0.391973220851767  0.0000
  O3     O3        0.411741453619404    0.253669428050342    0.357205769875293  0.0000
  O1     O1        0.976934370314972    0.048882755066532    0.464756533875918  0.0000
  O1     O1        0.473871390189009    0.064885682413855    0.561579615108581  0.0000
  O1     O1        0.023587994610602    0.020368339964263    0.212093550134505  0.0000
  O1     O1        0.528125989340871    0.017311477000163    0.318805742552056  0.0000
  O1     O1        0.025015062249220    0.997230849742749    0.714063051525086  0.0000
  O1     O1        0.521259376847585    0.030240110741983    0.815900468122209  0.0000
  O3     O3        0.629414529432410    0.152555356222867    0.129893644931445  0.0000
  O1     O1        0.874599840482763    0.910127111584927    0.141237864389302  0.0000
  O1     O1        0.415691931876071    0.281205517657422    0.889338120310837  0.0000
  O3     O3        0.086955214562521    0.817212895363885    0.920396573235071  0.0000
  O1     O1        0.370610185003249    0.940659881235883    0.892366640822208  0.0000
  O1     O1        0.121011754935444    0.177440201836695    0.879769540208176  0.0000
  O1     O1        0.582391926618600    0.802346679486877    0.133644454281646  0.0000
  O1     O1        0.907715744416264    0.254056929073770    0.146723067926994  0.0000
  O1     O1        0.477077583301928    0.057968245472193    0.071392081534473  0.0000
  O1     O1        0.975580357194269    0.061587396596087    0.959217555400082  0.0000
  O1     O1        0.156588669125725    0.481435371384733    0.359460069170601  0.0000
  O3     O3        0.339985054750934    0.547133562014577    0.346510259919446  0.0000
  O1     O1        0.841726882850399    0.570953224607577    0.675836424717386  0.0000
  O1     O1        0.657649736704945    0.496509900290958    0.673643220233403  0.0000
  O3     O3        0.270621622381287    0.257758300986513    0.286268596818776  0.0000
  O1     O1        0.234804949079749    0.797750876886983    0.313520137057448  0.0000
  O1     O1        0.768913507613339    0.256390228960560    0.729463346151191  0.0000
  O1     O1        0.730249132377425    0.805019960325954    0.734006285718146  0.0000
  O1     O1        0.140511704978466    0.274659608861746    0.136214379840139  0.0000
  O1     O1        0.358359185439439    0.796307819747916    0.141055459546680  0.0000
  O1     O1        0.879626967171251    0.391058387043842    0.897791187121696  0.0000
  O1     O1        0.610385291096018    0.687140240771545    0.885569517927054  0.0000
  O1     O1        0.858324338332140    0.785101164268193    0.891161873296168  0.0000
  O3     O3        0.641808111809840    0.283710273660497    0.893616440980993  0.0000
  O3     O3        0.123634022731296    0.676765490890105    0.144032104434549  0.0000
  O3     O3        0.374479607134422    0.400873413824900    0.134763783691106  0.0000
  O3     O3        0.655523782519853    0.483434330828568    0.094936527996959  0.0000
  O1     O1        0.838321536589367    0.569870203052829    0.114772863529805  0.0000
  O1     O1        0.342113553120792    0.593897175533272    0.916783477156899  0.0000
  O3     O3        0.158435196816910    0.524557920974568    0.933555504286296  0.0000
  O3     O3        0.760375485441652    0.264164599929543    0.043789139009946  0.0000
  O1     O1        0.729315891079731    0.801568071123749    0.044763844056623  0.0000
  O1     O1        0.264829756059314    0.276174208312455    0.964995013647269  0.0000
  O3     O3        0.228074089388203    0.815233262311414    0.991251912470871  0.0000
