data_c00024.vasp
_audit_creation_method             Generated by GULP
_audit_author_name                 Salvador R. G. Balestra
_symmetry_space_group_name_H-M     'P 1             '
_symmetry_Int_Tables_number        1

loop_
_symmetry_equiv_pos_site_id
_symmetry_equiv_pos_as_xyz
_cell_length_a                       17.5577
_cell_length_b                        7.8734
_cell_length_c                       10.3087
_cell_angle_alpha                   90.1266
_cell_angle_beta                    90.3896
_cell_angle_gamma                   88.0540

loop_
_atom_site_label
_atom_site_type_symbol
_atom_site_fract_x
_atom_site_fract_y
_atom_site_fract_z
_atom_site_charge
  Ge     Ge        0.052090000000021    0.000000000000000    0.372269999999958  0.0000
  Ge     Ge        0.445422721734853    0.950654848714077    0.360579481936809  0.0000
  Ge     Ge        0.944861867572781    0.958386723823036    0.620895299272308  0.0000
  Ge     Ge        0.546217859719924    0.017876604826099    0.614329582073725  0.0000
  Ge     Ge        0.556310711766691    0.014574595739849    0.122741488646259  0.0000
  Ge     Ge        0.937174497822361    0.964500998868996    0.131155900429206  0.0000
  Ge     Ge        0.448879438765675    0.951346652493737    0.873198361156328  0.0000
  Ge     Ge        0.043432052115333    0.016233038567743    0.880309681506277  0.0000
  Ge     Ge        0.147251169033029    0.312999122775841    0.255493218271539  0.0000
  Ge     Ge        0.355750357929073    0.630447598202927    0.251909826622805  0.0000
  Ge     Ge        0.824254592874218    0.245267303400012    0.703672147960920  0.0000
  Ge     Ge        0.668238651541541    0.731029169991165    0.694393844768757  0.0000
  Ge     Ge        0.847892523855739    0.651391403503389    0.697589277422130  0.0000
  Ge     Ge        0.642530296304400    0.327157918368411    0.696942634633906  0.0000
  Ge     Ge        0.172119807210557    0.709892534718098    0.261534418524653  0.0000
  Ge     Ge        0.639645735555720    0.339124404768509    0.009089678919597  0.0000
  Ge     Ge        0.322776777178415    0.241904564669060    0.936945290175217  0.0000
  Ge     Ge        0.169106628867479    0.726407954181465    0.947909383520178  0.0000
  Ge     Ge        0.350718530116019    0.640921917889283    0.939361882602026  0.0000
  Ge     Ge        0.143221906951981    0.326793477304978    0.937625488077630  0.0000
  Ge     Ge        0.825267051156909    0.264927266985554    0.015943933767293  0.0000
  Si     Si        0.326593073996849    0.240142526349325    0.246940101861534  0.0000
  Si     Si        0.846188931013033    0.656235487800292    0.003855847780296  0.0000
  Si     Si        0.667256329533463    0.728242152076038    0.000847677958557  0.0000
  O1     O1        0.081832051365806    0.199886006873080    0.337281420554637  0.0000
  O1     O1        0.418934273658841    0.744460287527369    0.342145208405238  0.0000
  O1     O1        0.871824312820469    0.108304957486772    0.601575626694971  0.0000
  O1     O1        0.618123154971690    0.865588200943724    0.594099363652970  0.0000
  O1     O1        0.911522875892929    0.756765672873557    0.604599830320407  0.0000
  O1     O1        0.581930957272978    0.216730044326036    0.598924995490084  0.0000
  O1     O1        0.127655666139512    0.859680760439447    0.357312762745651  0.0000
  O3     O3        0.370724677199601    0.089306478939716    0.321942611552771  0.0000
  O1     O1        0.023172221037352    0.996591217003535    0.532183461468319  0.0000
  O1     O1        0.468045664176536    0.983582670967247    0.521602087343775  0.0000
  O1     O1        0.971450656471337    0.948082483962716    0.287394402405493  0.0000
  O1     O1        0.528625154745913    0.990850800141191    0.280802485885278  0.0000
  O1     O1        0.968678500396293    0.975057043408936    0.783755558409419  0.0000
  O1     O1        0.522389472673866    0.995220661997723    0.776003631357119  0.0000
  O1     O1        0.579992535378034    0.222863992718515    0.101509727717504  0.0000
  O3     O3        0.897824226948135    0.772305874164158    0.091656724142681  0.0000
  O1     O1        0.374681020598567    0.098442760058937    0.849534892110009  0.0000
  O1     O1        0.118929340936624    0.873071515363477    0.858383514807103  0.0000
  O1     O1        0.412917296727560    0.753214275459733    0.848594836624142  0.0000
  O1     O1        0.076063883649542    0.217599072902951    0.854688492764162  0.0000
  O3     O3        0.634965606884726    0.882587633196325    0.086680766661559  0.0000
  O1     O1        0.868848923174193    0.124706368438677    0.120830077844212  0.0000
  O1     O1        0.478564230144795    0.962448285507781    0.032750124485189  0.0000
  O1     O1        0.015155038446265    0.005138367934980    0.040105787808052  0.0000
  O1     O1        0.154447704409262    0.511294632499946    0.321642107945104  0.0000
  O3     O3        0.345843129683394    0.423730720120993    0.307509532743380  0.0000
  O1     O1        0.837059370115212    0.448884452128286    0.646248539613953  0.0000
  O1     O1        0.655476288585839    0.526251557402074    0.639603273285898  0.0000
  O3     O3        0.236644301702200    0.210243620131693    0.255500957110720  0.0000
  O1     O1        0.268461645998475    0.734688152067176    0.259713575408228  0.0000
  O1     O1        0.728298206404375    0.213288900750980    0.705494305749793  0.0000
  O1     O1        0.763298498040885    0.768665599884166    0.689053276942998  0.0000
  O1     O1        0.117874387191760    0.339579167878677    0.098453004681384  0.0000
  O1     O1        0.386492585877171    0.625016955429361    0.095204803200964  0.0000
  O1     O1        0.858001658596720    0.228978441712521    0.861302217161945  0.0000
  O3     O3        0.635809072314916    0.743636709118765    0.854165143743378  0.0000
  O3     O3        0.878505333153461    0.644674994025597    0.858804578911392  0.0000
  O1     O1        0.606974438853838    0.338434990176499    0.852222957713241  0.0000
  O1     O1        0.137412548693104    0.732328629286668    0.105906413308156  0.0000
  O3     O3        0.352791703929817    0.240717592340622    0.097983622928837  0.0000
  O3     O3        0.642663336707252    0.549418855043865    0.060748970341255  0.0000
  O3     O3        0.845747542491802    0.469860842805477    0.065087507768556  0.0000
  O1     O1        0.337328408208001    0.443713873291395    0.877478473218352  0.0000
  O1     O1        0.154407211146622    0.527287201663943    0.881719299400888  0.0000
  O1     O1        0.728858292421606    0.244516873871310    0.017435038041037  0.0000
  O2     O2        0.759191407469025    0.732172647313265    0.992954761003090  0.0000
  O1     O1        0.227650367347453    0.207562339390439    0.929256824822022  0.0000
  O1     O1        0.265238085922439    0.755932835020738    0.947948383899769  0.0000
