data_c00084.vasp
_audit_creation_method             Generated by GULP
_audit_author_name                 Salvador R. G. Balestra
_symmetry_space_group_name_H-M     'P 1             '
_symmetry_Int_Tables_number        1

loop_
_symmetry_equiv_pos_site_id
_symmetry_equiv_pos_as_xyz
_cell_length_a                       17.7397
_cell_length_b                        7.8684
_cell_length_c                       10.5416
_cell_angle_alpha                   89.9851
_cell_angle_beta                    90.5323
_cell_angle_gamma                   90.0385

loop_
_atom_site_label
_atom_site_type_symbol
_atom_site_fract_x
_atom_site_fract_y
_atom_site_fract_z
_atom_site_charge
  Ge     Ge        0.052090000000021    0.000000000000000    0.372269999999958  0.0000
  Ge     Ge        0.451701881274636    0.966695854047270    0.375720210152021  0.0000
  Ge     Ge        0.954381995332302    0.994930404166600    0.632254608485117  0.0000
  Ge     Ge        0.553064423585881    0.969227133786155    0.632376098011640  0.0000
  Ge     Ge        0.561934602752213    0.964178438340427    0.135927424581348  0.0000
  Ge     Ge        0.944173111926101    0.986858928248614    0.122562724383147  0.0000
  Ge     Ge        0.451686278158336    0.969872027710383    0.887416543799525  0.0000
  Ge     Ge        0.149877521026384    0.311295029254627    0.266508046617128  0.0000
  Ge     Ge        0.353229140141956    0.655309874648289    0.263018707694551  0.0000
  Ge     Ge        0.854534489233390    0.305557408550017    0.710970478736366  0.0000
  Ge     Ge        0.653579441808721    0.657556807665452    0.714112583808075  0.0000
  Ge     Ge        0.833142021752129    0.715828533715845    0.714880507167157  0.0000
  Ge     Ge        0.674596649197326    0.248983515582002    0.707688611002234  0.0000
  Ge     Ge        0.173625198077017    0.715137705407824    0.263933589238277  0.0000
  Ge     Ge        0.329941974805952    0.249909413483262    0.263151069794705  0.0000
  Ge     Ge        0.676503750564611    0.246813865671483    0.014448497478330  0.0000
  Ge     Ge        0.328564014887191    0.250014322698292    0.955444100974049  0.0000
  Ge     Ge        0.168807133062972    0.708115565119885    0.954695031119384  0.0000
  Ge     Ge        0.349987152268783    0.653983843052051    0.952708694931838  0.0000
  Ge     Ge        0.147100863658328    0.304608424388607    0.958113267369470  0.0000
  Ge     Ge        0.655712250695501    0.648761419254181    0.023456351634517  0.0000
  Si     Si        0.052222765749812    0.989840203164768    0.885516999097927  0.0000
  Si     Si        0.834942397577367    0.696966647901969    0.014193474687062  0.0000
  Si     Si        0.855261955259207    0.301956163318832    0.008530063596013  0.0000
  O1     O1        0.085365287378983    0.202867623736816    0.354894294895618  0.0000
  O1     O1        0.420166982104047    0.763929556674651    0.347774173904760  0.0000
  O1     O1        0.917229557190420    0.195519715169038    0.620062620990800  0.0000
  O1     O1        0.590802166502484    0.768962589779639    0.622228119661863  0.0000
  O1     O1        0.882597996948230    0.848279704709078    0.619117247645947  0.0000
  O1     O1        0.623141425147142    0.117878826804903    0.611081539805305  0.0000
  O1     O1        0.124687513925674    0.860624477420868    0.349136356586026  0.0000
  O1     O1        0.379671526151629    0.107726567716405    0.352621653162454  0.0000
  O1     O1        0.024028469436770    0.967024964724662    0.526285522839515  0.0000
  O1     O1        0.478349110647374    0.989503143046843    0.532056090921021  0.0000
  O1     O1        0.974744295738708    0.968750704659755    0.276078309485507  0.0000
  O1     O1        0.531171252702060    0.000722859658398    0.287169850098444  0.0000
  O3     O3        0.986272966572222    0.959059078747737    0.786207047382622  0.0000
  O1     O1        0.523141050656124    0.003383982469678    0.785662220843596  0.0000
  O1     O1        0.637570629540971    0.094695191744356    0.107017014988139  0.0000
  O3     O3        0.879025061138194    0.824553885517331    0.105941809489863  0.0000
  O1     O1        0.378345081484687    0.111208413578616    0.865606680307701  0.0000
  O3     O3        0.118976799607963    0.853595270432449    0.865644484290676  0.0000
  O1     O1        0.413990203199734    0.769523328978345    0.868551302550044  0.0000
  O3     O3        0.085875855121818    0.178946412703320    0.870393323075621  0.0000
  O1     O1        0.595687255518300    0.760813846249255    0.116753256504377  0.0000
  O3     O3        0.907219541271051    0.189235070203150    0.100093552355186  0.0000
  O1     O1        0.485742956834843    0.001090300361747    0.039300843736727  0.0000
  O3     O3        0.021888237293448    0.961688066714509    0.028069052069713  0.0000
  O1     O1        0.161594500955137    0.512723309503136    0.323965562044959  0.0000
  O1     O1        0.343049967603733    0.453453860183703    0.320451161972124  0.0000
  O1     O1        0.845755210906304    0.510133916930739    0.661974817969108  0.0000
  O1     O1        0.663424256048661    0.456343254062522    0.657669884420492  0.0000
  O1     O1        0.235254464915025    0.206534736585766    0.267266832891776  0.0000
  O1     O1        0.268172069852336    0.760933818257513    0.268051046523857  0.0000
  O1     O1        0.768902170092403    0.202980862762384    0.702856041882440  0.0000
  O1     O1        0.739087368312658    0.761966567997539    0.710336015924072  0.0000
  O1     O1        0.117324516611797    0.316448782147880    0.112152817951006  0.0000
  O1     O1        0.381287503477224    0.647726952040587    0.107705464447103  0.0000
  O3     O3        0.887647105817753    0.297231711843284    0.867154077828683  0.0000
  O1     O1        0.623302451994825    0.656716667007254    0.869193447388880  0.0000
  O3     O3        0.863409736962259    0.726315571735308    0.872056538365196  0.0000
  O1     O1        0.643111062194353    0.235152739571220    0.861628414469842  0.0000
  O1     O1        0.141420500396434    0.711531206064083    0.110194365341416  0.0000
  O1     O1        0.361119350648066    0.243274692391375    0.109856880455049  0.0000
  O1     O1        0.656185971757586    0.443397875285856    0.075879960940794  0.0000
  O2     O2        0.849591276452143    0.498972749488435    0.054056518872296  0.0000
  O1     O1        0.340973790922653    0.452376925362868    0.895529524623327  0.0000
  O1     O1        0.153614418338669    0.505247842929042    0.896583867112878  0.0000
  O3     O3        0.772767129707324    0.219187123167568    0.006570569024455  0.0000
  O3     O3        0.746268558387451    0.732315359399077    0.023160372988074  0.0000
  O1     O1        0.234020656615471    0.207414487220951    0.957216947738812  0.0000
  O1     O1        0.263235784419082    0.752786989508071    0.949061405877468  0.0000
