data_c00098.vasp
_audit_creation_method             Generated by GULP
_audit_author_name                 Salvador R. G. Balestra
_symmetry_space_group_name_H-M     'P 1             '
_symmetry_Int_Tables_number        1

loop_
_symmetry_equiv_pos_site_id
_symmetry_equiv_pos_as_xyz
_cell_length_a                       17.5946
_cell_length_b                        7.8484
_cell_length_c                       10.3132
_cell_angle_alpha                   90.4059
_cell_angle_beta                    89.9671
_cell_angle_gamma                   91.6317

loop_
_atom_site_label
_atom_site_type_symbol
_atom_site_fract_x
_atom_site_fract_y
_atom_site_fract_z
_atom_site_charge
  Ge     Ge        0.052090000000021    0.000000000000000    0.372269999999958  0.0000
  Ge     Ge        0.442284661082740    0.054684263620736    0.331835542596676  0.0000
  Ge     Ge        0.947627175849845    0.038541800809031    0.626017763994964  0.0000
  Ge     Ge        0.545143423515535    0.983326209795773    0.582860042167493  0.0000
  Ge     Ge        0.542136469533194    0.983981224238067    0.075457656349533  0.0000
  Ge     Ge        0.941467970641820    0.047928627221358    0.127260566790291  0.0000
  Ge     Ge        0.435086907478430    0.038990257914088    0.826470702460629  0.0000
  Ge     Ge        0.165974986412967    0.298279322953457    0.262004384415754  0.0000
  Ge     Ge        0.319560482090423    0.770364043452947    0.251899309838375  0.0000
  Ge     Ge        0.849649083705335    0.354555925842570    0.694622533296551  0.0000
  Ge     Ge        0.640453971670925    0.673204993618570    0.696012245449625  0.0000
  Ge     Ge        0.821633250684837    0.755813764340337    0.696177954379497  0.0000
  Ge     Ge        0.668622301145278    0.271892864675247    0.696140101788282  0.0000
  Ge     Ge        0.348879304535946    0.370073093740467    0.259558413610919  0.0000
  Ge     Ge        0.668122915887281    0.270375999371850    0.011129043337448  0.0000
  Ge     Ge        0.820488839494566    0.759977352192282    0.011685943688372  0.0000
  Ge     Ge        0.343423845168308    0.355048565119643    0.947854517261093  0.0000
  Ge     Ge        0.142148238663782    0.682074233701778    0.943379039962129  0.0000
  Ge     Ge        0.159487897895108    0.281396996944587    0.951048582522567  0.0000
  Ge     Ge        0.640546474303882    0.670631753235128    0.012269586632913  0.0000
  Ge     Ge        0.848622161286651    0.357352923596692    0.010286570157925  0.0000
  Si     Si        0.044002210155418    0.987423140068506    0.880796209755133  0.0000
  Si     Si        0.143010211088254    0.691950694538390    0.252040180270325  0.0000
  Si     Si        0.319796878072572    0.753097239302671    0.943547944343411  0.0000
  O1     O1        0.121287044929930    0.156824700591225    0.363395198829995  0.0000
  O1     O1        0.364031491034405    0.918076675586293    0.347562442948511  0.0000
  O1     O1        0.915020062237508    0.241105515226015    0.608463854648943  0.0000
  O1     O1        0.572881623460958    0.779532819418822    0.611139432010573  0.0000
  O1     O1        0.872224045987375    0.897639939876052    0.602921969511242  0.0000
  O1     O1        0.620866349978666    0.121463608691130    0.605168499614720  0.0000
  O3     O3        0.081829519825006    0.799061967294550    0.329531319130106  0.0000
  O1     O1        0.411426050845508    0.258430054051326    0.352273129329220  0.0000
  O1     O1        0.023478722204357    0.994051572937504    0.531809919780945  0.0000
  O1     O1        0.518122972387602    0.002406193959503    0.422301695040354  0.0000
  O1     O1        0.972775573025929    0.045996432689263    0.284396676109276  0.0000
  O1     O1        0.466936977992947    0.028302174465646    0.170371107410569  0.0000
  O3     O3        0.973835525023987    0.017784360447934    0.788639066602273  0.0000
  O1     O1        0.464387202069359    0.031536945487148    0.667654694963664  0.0000
  O1     O1        0.617206154496388    0.126997107721528    0.101340049549087  0.0000
  O1     O1        0.865482625277513    0.908680135166339    0.108321444417467  0.0000
  O1     O1        0.403281804885442    0.241668339696342    0.852456635219141  0.0000
  O3     O3        0.079480385370473    0.801997085060304    0.857580158658114  0.0000
  O3     O3        0.362892595240847    0.888902636683088    0.853517814445973  0.0000
  O3     O3        0.110240067478134    0.130952943575817    0.859449564630275  0.0000
  O1     O1        0.574907025471928    0.781958589254612    0.098375954327993  0.0000
  O1     O1        0.915294128547885    0.252543213219830    0.096501618241596  0.0000
  O1     O1        0.514096737820406    0.997960173339812    0.915360788110640  0.0000
  O3     O3        0.016792813328120    0.991053065614104    0.029977690198345  0.0000
  O3     O3        0.154107725324186    0.507618284840949    0.314835944197691  0.0000
  O1     O1        0.340944554896638    0.573782483196645    0.313616281055831  0.0000
  O1     O1        0.836710663501803    0.553547009011825    0.635086649506452  0.0000
  O1     O1        0.653137431494673    0.472229943795622    0.634931905903284  0.0000
  O1     O1        0.261436227259430    0.265062490469739    0.259524717241454  0.0000
  O3     O3        0.222676964779467    0.799278109231216    0.254074549942866  0.0000
  O1     O1        0.764524743425917    0.239225285758898    0.694352214317211  0.0000
  O1     O1        0.725590664226688    0.787993627083729    0.691594502447332  0.0000
  O1     O1        0.128870476079031    0.268376639711972    0.109356891382061  0.0000
  O3     O3        0.349612644035606    0.773095788877447    0.091000395074132  0.0000
  O1     O1        0.878876632684905    0.376451185715833    0.852922378375816  0.0000
  O1     O1        0.611197811456656    0.650577154856509    0.853471087189823  0.0000
  O1     O1        0.852281841596706    0.771832821394558    0.854507038685907  0.0000
  O1     O1        0.636480032222334    0.260330386355849    0.853074782339745  0.0000
  O3     O3        0.116362225434329    0.660667809746795    0.104768313750704  0.0000
  O1     O1        0.380202241498196    0.366667053550912    0.101196713761954  0.0000
  O1     O1        0.653305416758531    0.472571572572740    0.073155743485954  0.0000
  O1     O1        0.835320197846940    0.557978699747897    0.070573779261653  0.0000
  O3     O3        0.333455071660890    0.561616689872773    0.892510112846841  0.0000
  O1     O1        0.143208153561005    0.479003592176524    0.884902678118740  0.0000
  O1     O1        0.764085956705937    0.239569296622971    0.013291144715584  0.0000
  O1     O1        0.724380373440626    0.789974581569121    0.011523508888980  0.0000
  O1     O1        0.255557788882306    0.253372619080887    0.949348966818544  0.0000
  O3     O3        0.230172880973428    0.785336846967860    0.939277884332156  0.0000
