data_c00036.vasp
_audit_creation_method             Generated by GULP
_audit_author_name                 Salvador R. G. Balestra
_symmetry_space_group_name_H-M     'P 1             '
_symmetry_Int_Tables_number        1

loop_
_symmetry_equiv_pos_site_id
_symmetry_equiv_pos_as_xyz
_cell_length_a                       17.7148
_cell_length_b                        7.8190
_cell_length_c                       10.2182
_cell_angle_alpha                   89.8025
_cell_angle_beta                    90.0999
_cell_angle_gamma                   90.7676

loop_
_atom_site_label
_atom_site_type_symbol
_atom_site_fract_x
_atom_site_fract_y
_atom_site_fract_z
_atom_site_charge
  Ge     Ge        0.052090000000021    0.000000000000000    0.372269999999958  0.0000
  Ge     Ge        0.440271831420524    0.051015573593851    0.329930996161716  0.0000
  Ge     Ge        0.945555269620774    0.042942474254018    0.622068765133687  0.0000
  Ge     Ge        0.548413022789520    0.999940467427257    0.581384382100655  0.0000
  Ge     Ge        0.547532701931998    0.980783714682493    0.082286194488846  0.0000
  Ge     Ge        0.938775944736344    0.038852274602957    0.131722069900837  0.0000
  Ge     Ge        0.443704655318398    0.044175027875334    0.832114835547855  0.0000
  Ge     Ge        0.045308622739374    0.983914600683704    0.881736534102456  0.0000
  Ge     Ge        0.167813169734464    0.295098151114173    0.266497179156134  0.0000
  Ge     Ge        0.321332532326618    0.758994139911592    0.261554610362320  0.0000
  Ge     Ge        0.848841068746872    0.358004137200667    0.694423901182056  0.0000
  Ge     Ge        0.642534871470300    0.684736453406173    0.703650717615546  0.0000
  Ge     Ge        0.822046988757127    0.764521481267756    0.701142628389319  0.0000
  Ge     Ge        0.670322292088872    0.280591115425453    0.693239331357067  0.0000
  Ge     Ge        0.670656240643594    0.266323561716055    0.010050963376449  0.0000
  Ge     Ge        0.823579892953537    0.745283451473068    0.017294406559777  0.0000
  Ge     Ge        0.348100590224411    0.352550040481861    0.956823074380921  0.0000
  Ge     Ge        0.146103565813440    0.671444880747585    0.942100948685089  0.0000
  Ge     Ge        0.322744262227502    0.759423387340043    0.943961660189645  0.0000
  Ge     Ge        0.170462833163000    0.267067443030695    0.950498209079536  0.0000
  Ge     Ge        0.644629108494850    0.665860673910708    0.023251476875663  0.0000
  Si     Si        0.145058443592400    0.687706594042637    0.255744471168449  0.0000
  Si     Si        0.344306542733059    0.366248261284273    0.268846536013769  0.0000
  Si     Si        0.846471753760198    0.345147525294148    0.005022663692922  0.0000
  O1     O1        0.122384862558161    0.151879253865796    0.365893597644454  0.0000
  O1     O1        0.369486462414566    0.901777917189646    0.356908205963442  0.0000
  O1     O1        0.914009446680539    0.248962795118871    0.604587603934544  0.0000
  O1     O1        0.575162264908865    0.795402189334010    0.619415125982705  0.0000
  O1     O1        0.870541782208579    0.903269959711984    0.601972019258393  0.0000
  O1     O1        0.623710997615609    0.137318861971526    0.595721401291198  0.0000
  O3     O3        0.082377800835079    0.799586624576484    0.326580697799713  0.0000
  O3     O3        0.403499015728265    0.254061753260426    0.350250726596732  0.0000
  O1     O1        0.023012529485910    0.992596247026076    0.533472832822753  0.0000
  O1     O1        0.518389312100373    0.011462303949518    0.420816130133799  0.0000
  O1     O1        0.971092572643379    0.053358553514448    0.290290036843095  0.0000
  O1     O1        0.470143885971130    0.034650598272529    0.169383988529628  0.0000
  O1     O1        0.970467867571500    0.025670328635725    0.785739452308719  0.0000
  O1     O1        0.471305519479212    0.058228759685925    0.671471437026237  0.0000
  O1     O1        0.623506934887179    0.118884075252070    0.102329301780097  0.0000
  O1     O1        0.871205371508463    0.880189259179302    0.120637306266940  0.0000
  O1     O1        0.418603407410506    0.246240970517956    0.881328307054641  0.0000
  O1     O1        0.078301505865698    0.779162359647867    0.859048610476629  0.0000
  O1     O1        0.369638437256738    0.901563932177564    0.845708517878060  0.0000
  O1     O1        0.119769765625754    0.125575887838656    0.858701717984874  0.0000
  O1     O1        0.580551383616339    0.778431369660818    0.112707669255998  0.0000
  O3     O3        0.905826463077858    0.239127379457903    0.088986978040569  0.0000
  O1     O1        0.520703033760891    0.980180232738012    0.919501362211807  0.0000
  O1     O1        0.017303398651521    0.992885321310428    0.042844413489983  0.0000
  O3     O3        0.151866981197042    0.501458807582582    0.322073430014937  0.0000
  O3     O3        0.336820748758708    0.555535154350017    0.325668493068027  0.0000
  O1     O1        0.837020237720963    0.561345683521465    0.640366061378820  0.0000
  O1     O1        0.655876600595741    0.485926689171269    0.637557638351100  0.0000
  O3     O3        0.264393646886965    0.264942538322960    0.269327597808575  0.0000
  O3     O3        0.224744901349536    0.790729982355840    0.262992585990225  0.0000
  O1     O1        0.765369683282823    0.243330206831073    0.688962762167774  0.0000
  O1     O1        0.726711781955269    0.799429529165834    0.700957905031168  0.0000
  O1     O1        0.137919713806309    0.257881356356656    0.109671448654577  0.0000
  O1     O1        0.352853536911808    0.782935037818840    0.103667414181923  0.0000
  O3     O3        0.876376901753312    0.369739800335183    0.857856660688266  0.0000
  O1     O1        0.615807809179742    0.650685155613854    0.862415467032939  0.0000
  O1     O1        0.854895698680956    0.777813040190000    0.860307253251945  0.0000
  O1     O1        0.638014606734369    0.257207614350614    0.851421385502819  0.0000
  O3     O3        0.122835264252381    0.649963658989149    0.106708365206396  0.0000
  O3     O3        0.371288184228431    0.386796723951659    0.119332759529393  0.0000
  O1     O1        0.654059574475226    0.462666316200625    0.080138949965611  0.0000
  O3     O3        0.834707384576078    0.532443802808156    0.064930097057082  0.0000
  O1     O1        0.337077007619448    0.552483205891961    0.891739285874815  0.0000
  O1     O1        0.157970114613518    0.469737004553477    0.885612832084085  0.0000
  O3     O3        0.767491937264548    0.238660447600815    0.004018868147228  0.0000
  O1     O1        0.728632029140519    0.780260206240713    0.023779069251853  0.0000
  O1     O1        0.265988530749775    0.232297801651727    0.947363299558103  0.0000
  O1     O1        0.227617293528246    0.793320177875520    0.935954379925511  0.0000
