data_c00089.vasp
_audit_creation_method             Generated by GULP
_audit_author_name                 Salvador R. G. Balestra
_symmetry_space_group_name_H-M     'P 1             '
_symmetry_Int_Tables_number        1

loop_
_symmetry_equiv_pos_site_id
_symmetry_equiv_pos_as_xyz
_cell_length_a                       17.6324
_cell_length_b                        7.8615
_cell_length_c                       10.2734
_cell_angle_alpha                   89.8934
_cell_angle_beta                    91.1088
_cell_angle_gamma                   88.5155

loop_
_atom_site_label
_atom_site_type_symbol
_atom_site_fract_x
_atom_site_fract_y
_atom_site_fract_z
_atom_site_charge
  Ge     Ge        0.052090000000021    0.000000000000000    0.372269999999958  0.0000
  Ge     Ge        0.443191425498476    0.955015540216023    0.355115413641578  0.0000
  Ge     Ge        0.944612221468971    0.955930480974091    0.622383137034056  0.0000
  Ge     Ge        0.545814794637708    0.012522296463689    0.612179953768425  0.0000
  Ge     Ge        0.546494237900606    0.002265645604979    0.103824293466626  0.0000
  Ge     Ge        0.951925411488876    0.941723555189392    0.109991747741875  0.0000
  Ge     Ge        0.437903535021478    0.941205429299305    0.852900007885279  0.0000
  Ge     Ge        0.148622360144597    0.310709778329420    0.294465185010264  0.0000
  Ge     Ge        0.349181317404518    0.637326680803002    0.279275917333231  0.0000
  Ge     Ge        0.822557363397638    0.242244563585430    0.724780527870741  0.0000
  Ge     Ge        0.669922056281200    0.723615343045245    0.728661819081545  0.0000
  Ge     Ge        0.850452672623200    0.641572018715707    0.732221081918210  0.0000
  Ge     Ge        0.641509837284294    0.323019441979852    0.725802595337846  0.0000
  Ge     Ge        0.167738525220572    0.712152027614121    0.283823926623907  0.0000
  Ge     Ge        0.646148045105367    0.315093311814942    0.043369421743408  0.0000
  Ge     Ge        0.850972595553012    0.630168979683353    0.050788587672782  0.0000
  Ge     Ge        0.320065191129251    0.228944364489476    0.977669271146320  0.0000
  Ge     Ge        0.161365616289086    0.694070698269628    0.970867274744578  0.0000
  Ge     Ge        0.346766576051023    0.628011864111468    0.965951611364194  0.0000
  Ge     Ge        0.671626801495862    0.715348396393255    0.045803379875089  0.0000
  Ge     Ge        0.825911596312310    0.230216891864663    0.040945667987680  0.0000
  Si     Si        0.051962361765436    0.993306935436193    0.864274378199288  0.0000
  Si     Si        0.324840252297851    0.242476551602079    0.287173436761271  0.0000
  Si     Si        0.141249167297461    0.298792343537352    0.985060540991029  0.0000
  O1     O1        0.088714014295058    0.199335807714755    0.388889099653272  0.0000
  O1     O1        0.407544565770640    0.755576636860405    0.376800993359384  0.0000
  O1     O1        0.868924598670934    0.094260615574846    0.631267172967092  0.0000
  O1     O1        0.621635033948524    0.876401307739637    0.640379167834885  0.0000
  O1     O1        0.918201368658010    0.752307126140679    0.653095893397411  0.0000
  O1     O1        0.572845152262357    0.216982455454442    0.640905037721235  0.0000
  O1     O1        0.124529026596748    0.850509578913553    0.388241359674165  0.0000
  O3     O3        0.372738306529023    0.111040801316100    0.376625140583747  0.0000
  O1     O1        0.975809432973008    0.964107486634016    0.464337725143861  0.0000
  O1     O1        0.520513038305457    0.993486324853028    0.449709536619052  0.0000
  O1     O1        0.025704680104035    0.984244249584295    0.209536170489232  0.0000
  O1     O1        0.469865187745269    0.962533255659048    0.194473677426716  0.0000
  O3     O3        0.022741415827406    0.013977154521890    0.716244580360806  0.0000
  O1     O1        0.465137415374478    0.963134819029810    0.694292019343536  0.0000
  O1     O1        0.581613315010786    0.202215100122368    0.128010344646051  0.0000
  O1     O1        0.917374591132048    0.741294697543344    0.135782169670059  0.0000
  O1     O1        0.360341845880623    0.068311925624944    0.891271831776150  0.0000
  O3     O3        0.115725468824316    0.843480792517639    0.871600930527699  0.0000
  O1     O1        0.409398482716795    0.735654189793881    0.873728820392727  0.0000
  O2     O2        0.082121358770523    0.176353878270365    0.911976097032834  0.0000
  O1     O1        0.619348425379330    0.856536986043122    0.134680049807720  0.0000
  O1     O1        0.877587247554697    0.084996135733595    0.130504329978068  0.0000
  O1     O1        0.516781542106946    0.991743348080034    0.942673552513740  0.0000
  O3     O3        0.979858223391443    0.944718778856103    0.948302994792623  0.0000
  O1     O1        0.155126169515271    0.512462604107127    0.349397253913604  0.0000
  O3     O3        0.337817250906308    0.434107200848782    0.338547720045957  0.0000
  O1     O1        0.837982274700660    0.443729582057566    0.665941575354443  0.0000
  O1     O1        0.652952446240830    0.524339350684537    0.665802719629754  0.0000
  O3     O3        0.236166028690965    0.204059280205611    0.293585289910743  0.0000
  O1     O1        0.262740224991665    0.743926518947409    0.271801938622501  0.0000
  O1     O1        0.726603050887372    0.210563292980477    0.720096762871747  0.0000
  O1     O1        0.765765026600572    0.756585401415403    0.725729886774447  0.0000
  O3     O3        0.116615091204765    0.322657646675081    0.133438745608243  0.0000
  O1     O1        0.381893962129434    0.627782368308264    0.123487923405399  0.0000
  O1     O1        0.855564087155262    0.221527222908461    0.882441328462996  0.0000
  O1     O1        0.639778912555531    0.729954842911093    0.886486124740545  0.0000
  O1     O1        0.877057619459864    0.608330114547623    0.891143305555892  0.0000
  O1     O1        0.614894860300318    0.341190505348105    0.884818004398927  0.0000
  O1     O1        0.130679632367825    0.723177895131020    0.126648840854663  0.0000
  O3     O3        0.352333753023256    0.228328258808047    0.138337420812612  0.0000
  O1     O1        0.659109853324489    0.512652644362894    0.106553666319364  0.0000
  O1     O1        0.839094960015156    0.429504916766178    0.108401256542860  0.0000
  O1     O1        0.341760841175225    0.421796205131759    0.912025573830679  0.0000
  O3     O3        0.143023866260722    0.485735178055307    0.921349259597480  0.0000
  O1     O1        0.730147670624008    0.197083419396448    0.041518074852804  0.0000
  O1     O1        0.766990685413011    0.749159962898719    0.051921029178052  0.0000
  O3     O3        0.223118232467131    0.205862119659133    0.978398267450725  0.0000
  O1     O1        0.257045564055310    0.720251393204458    0.961997435481619  0.0000
