data_c00095.vasp
_audit_creation_method             Generated by GULP
_audit_author_name                 Salvador R. G. Balestra
_symmetry_space_group_name_H-M     'P 1             '
_symmetry_Int_Tables_number        1

loop_
_symmetry_equiv_pos_site_id
_symmetry_equiv_pos_as_xyz
_cell_length_a                       17.7426
_cell_length_b                        7.8195
_cell_length_c                       10.1491
_cell_angle_alpha                   91.5809
_cell_angle_beta                    89.9844
_cell_angle_gamma                   90.8264

loop_
_atom_site_label
_atom_site_type_symbol
_atom_site_fract_x
_atom_site_fract_y
_atom_site_fract_z
_atom_site_charge
  Ge     Ge        0.052090000000021    0.000000000000000    0.372269999999958  0.0000
  Ge     Ge        0.442618697203442    0.056180235040013    0.384382992255123  0.0000
  Ge     Ge        0.951761222275311    0.014376677530717    0.632445482675343  0.0000
  Ge     Ge        0.549197969443159    0.973882013560752    0.627532551306099  0.0000
  Ge     Ge        0.550998135277334    0.982154503829017    0.137005751348767  0.0000
  Ge     Ge        0.935234843119129    0.039435618338592    0.139996899970133  0.0000
  Ge     Ge        0.445542456041244    0.021618816656306    0.883506358078283  0.0000
  Ge     Ge        0.164481206124059    0.299623560524666    0.278653285502981  0.0000
  Ge     Ge        0.319164214241697    0.769193153838095    0.265753159479422  0.0000
  Ge     Ge        0.852028239583480    0.333135786175771    0.701591176901898  0.0000
  Ge     Ge        0.647230781292335    0.660368630511058    0.697225077415776  0.0000
  Ge     Ge        0.826317551577772    0.740070453537997    0.706383800515008  0.0000
  Ge     Ge        0.673983897424305    0.256383816280694    0.693967806177294  0.0000
  Ge     Ge        0.348357168075701    0.365514897234971    0.274309788126078  0.0000
  Ge     Ge        0.670753715583698    0.261155880127308    0.014974932195704  0.0000
  Ge     Ge        0.821336620462447    0.741212152820749    0.024883382562588  0.0000
  Ge     Ge        0.339832126856555    0.328430501223550    0.955931642090085  0.0000
  Ge     Ge        0.147057058259644    0.657249908329423    0.939713740383600  0.0000
  Ge     Ge        0.319602363596277    0.736524150398003    0.937225052816264  0.0000
  Ge     Ge        0.159113047401843    0.257248049339950    0.963524957309136  0.0000
  Ge     Ge        0.641648692864046    0.662629806590582    0.018639890613543  0.0000
  Si     Si        0.042648533669842    0.963968423940987    0.897578357131982  0.0000
  Si     Si        0.148213228752168    0.687758069568439    0.261769935213954  0.0000
  Si     Si        0.845881039026461    0.342635474730556    0.015648788594025  0.0000
  O1     O1        0.119843866018861    0.156111762298423    0.378670504056009  0.0000
  O1     O1        0.364713517031194    0.934120033050518    0.344884450744194  0.0000
  O1     O1        0.920162769415966    0.220502709514920    0.619469433979975  0.0000
  O1     O1        0.583866321802420    0.771228003808900    0.605555555575534  0.0000
  O1     O1        0.876433482806179    0.875693213108750    0.609716649974036  0.0000
  O1     O1        0.621349656528266    0.117179417885181    0.598087497870550  0.0000
  O3     O3        0.078593460053341    0.806229494753143    0.298153139456347  0.0000
  O1     O1        0.414671880653673    0.263091916488623    0.365551020285877  0.0000
  O1     O1        0.025982234384521    0.967153034332038    0.533902582928686  0.0000
  O1     O1        0.468699309351098    0.018179438773259    0.544308063802175  0.0000
  O1     O1        0.969581512823341    0.057046371643946    0.297576534177435  0.0000
  O1     O1        0.522954374841550    0.003803209421692    0.298513543248845  0.0000
  O3     O3        0.976156280289823    0.992961202184605    0.797320646875058  0.0000
  O1     O1        0.524767671759492    0.994923095684222    0.792725006990763  0.0000
  O1     O1        0.628703935919603    0.109230555605076    0.108062283404188  0.0000
  O1     O1        0.866140242360788    0.884553291780269    0.129745945582903  0.0000
  O1     O1        0.399571190218161    0.210299680197727    0.859452267874435  0.0000
  O3     O3        0.071818619895201    0.768837538919699    0.883248963782824  0.0000
  O1     O1        0.381605125953088    0.857518590157076    0.850900117850585  0.0000
  O3     O3        0.111571807038427    0.096457414487970    0.875810478518499  0.0000
  O1     O1        0.574310572305030    0.772377489167779    0.104986966513112  0.0000
  O3     O3        0.905176166321202    0.241020944212023    0.100690566563154  0.0000
  O1     O1        0.473639824107714    0.033033000297350    0.046574103341795  0.0000
  O3     O3        0.012845787573643    0.985092859613940    0.046247422965743  0.0000
  O3     O3        0.145432583076116    0.507831359463600    0.335037208844835  0.0000
  O1     O1        0.344679258888174    0.575704062357456    0.326679547651675  0.0000
  O1     O1        0.840852917340304    0.534076465967718    0.645570171806190  0.0000
  O1     O1        0.661473939805143    0.459198375137323    0.634629860577164  0.0000
  O1     O1        0.259931217673724    0.272481495635395    0.284000493175646  0.0000
  O3     O3        0.223671327798884    0.796866619602068    0.295749963548355  0.0000
  O1     O1        0.768620459260578    0.216952306095852    0.689179979386759  0.0000
  O1     O1        0.731078837539839    0.775498257538047    0.702471126752999  0.0000
  O1     O1        0.128471308486372    0.253671171865025    0.124412704980727  0.0000
  O1     O1        0.340264835287925    0.774890234436958    0.101236357061135  0.0000
  O3     O3        0.875496305627582    0.358692510873231    0.867145615795557  0.0000
  O1     O1        0.615043850190034    0.642576516050648    0.856182548841515  0.0000
  O1     O1        0.854954214440248    0.764208702129019    0.868426020642080  0.0000
  O1     O1        0.641697913571283    0.245847080669477    0.853980144989202  0.0000
  O3     O3        0.154556439341221    0.626719222005783    0.108769434767246  0.0000
  O1     O1        0.375875457822088    0.357685263038580    0.112259995906658  0.0000
  O1     O1        0.649549115414486    0.460824824455911    0.078631529395979  0.0000
  O3     O3        0.833789461531934    0.532091460989619    0.075847822990916  0.0000
  O1     O1        0.327762461906685    0.524109874435435    0.890766671800632  0.0000
  O1     O1        0.142993808647722    0.447945900873675    0.886000902691651  0.0000
  O3     O3        0.767534870248970    0.235269422360911    0.014489345731165  0.0000
  O1     O1        0.726107030252978    0.773527705059138    0.028007580580832  0.0000
  O1     O1        0.254273807484665    0.221133351812821    0.965703685608920  0.0000
  O1     O1        0.226643611092381    0.773425534812179    0.902647664285213  0.0000
