data_c00051.vasp
_audit_creation_method             Generated by GULP
_audit_author_name                 Salvador R. G. Balestra
_symmetry_space_group_name_H-M     'P 1             '
_symmetry_Int_Tables_number        1

loop_
_symmetry_equiv_pos_site_id
_symmetry_equiv_pos_as_xyz
_cell_length_a                       17.8786
_cell_length_b                        7.8932
_cell_length_c                       10.3300
_cell_angle_alpha                   89.2869
_cell_angle_beta                    90.6605
_cell_angle_gamma                   90.1738

loop_
_atom_site_label
_atom_site_type_symbol
_atom_site_fract_x
_atom_site_fract_y
_atom_site_fract_z
_atom_site_charge
  Ge     Ge        0.052090000000021    0.000000000000000    0.372269999999958  0.0000
  Ge     Ge        0.447105277118324    0.986727245420281    0.404965693124945  0.0000
  Ge     Ge        0.945530199706869    0.037128690513726    0.618966393730136  0.0000
  Ge     Ge        0.552430251888420    0.002043690463021    0.659849861327801  0.0000
  Ge     Ge        0.554219081453035    0.988941298507905    0.158727689989569  0.0000
  Ge     Ge        0.948566955689480    0.016282399177210    0.114613575549026  0.0000
  Ge     Ge        0.446174642672172    0.996346514742344    0.911084352151637  0.0000
  Ge     Ge        0.055114847038142    0.011231584982186    0.868070613362151  0.0000
  Ge     Ge        0.158155067075032    0.306981282384433    0.297786202446923  0.0000
  Ge     Ge        0.347744786133459    0.674826685093455    0.294639462960159  0.0000
  Ge     Ge        0.849010205726366    0.347646117885776    0.723181060914942  0.0000
  Ge     Ge        0.827220333087411    0.748061458625163    0.735791640703193  0.0000
  Ge     Ge        0.668426816313392    0.293995179050979    0.724296778883729  0.0000
  Ge     Ge        0.166969215981116    0.712330792691361    0.299856616253302  0.0000
  Ge     Ge        0.670924766576942    0.272567101671546    0.037381850615112  0.0000
  Ge     Ge        0.826886302938375    0.735547330835854    0.051313643531314  0.0000
  Ge     Ge        0.326979053254146    0.277695781699866    0.980111981213189  0.0000
  Ge     Ge        0.166191228874225    0.715714328090895    0.987288505485767  0.0000
  Ge     Ge        0.347091247527124    0.679454121866127    0.981670192878103  0.0000
  Ge     Ge        0.648852359149040    0.678954824980315    0.041748010282162  0.0000
  Ge     Ge        0.849911446516988    0.333563227838722    0.039414169513268  0.0000
  Si     Si        0.651250180325874    0.690849056361366    0.732952104175305  0.0000
  Si     Si        0.333519323772479    0.275729159889009    0.288701887807862  0.0000
  Si     Si        0.151787266077771    0.314078174619290    0.989321328656942  0.0000
  O1     O1        0.100930646028085    0.186427326997876    0.391473505482692  0.0000
  O1     O1        0.407343315292671    0.789961841655906    0.389552373769710  0.0000
  O1     O1        0.912273723834414    0.239365444175916    0.632819824955026  0.0000
  O3     O3        0.595602417031263    0.805959814883259    0.647393911693910  0.0000
  O1     O1        0.872021370356141    0.903884364561646    0.652031509936565  0.0000
  O1     O1        0.615641400376300    0.162170033415372    0.629228908581186  0.0000
  O1     O1        0.114269616831005    0.837132925968164    0.397507733618201  0.0000
  O3     O3        0.383325419168385    0.144632189336548    0.369917871636554  0.0000
  O1     O1        0.973438321603034    0.997219448577424    0.463066534354093  0.0000
  O1     O1        0.474732967890945    0.010850491244669    0.563431707360223  0.0000
  O1     O1        0.024112479792643    0.986727544697229    0.212323423165685  0.0000
  O1     O1        0.527705797558928    0.001856293926246    0.317278474585130  0.0000
  O1     O1        0.025640692519501    0.008566893333306    0.709440059735611  0.0000
  O1     O1        0.521562410946989    0.026965917183397    0.815863438961022  0.0000
  O1     O1        0.626467669465640    0.128089308222874    0.133668518875292  0.0000
  O1     O1        0.878235185169312    0.870627899121629    0.143871686430963  0.0000
  O1     O1        0.374279915629855    0.140177692956778    0.887523790932812  0.0000
  O1     O1        0.117171037437027    0.847449540931372    0.885936230715702  0.0000
  O1     O1        0.407239975672967    0.799238112120893    0.890902194863705  0.0000
  O3     O3        0.093468302580883    0.206968723682090    0.905553233973123  0.0000
  O1     O1        0.582282416585025    0.785603794571732    0.123566108619896  0.0000
  O1     O1        0.911987750151686    0.216085947594692    0.129659644242475  0.0000
  O1     O1        0.476189072810968    0.032789260485347    0.067350627579935  0.0000
  O1     O1        0.976306458079454    0.983758787308805    0.957546051196590  0.0000
  O1     O1        0.158579494993859    0.507384395783434    0.355509515022880  0.0000
  O3     O3        0.342226632871144    0.464721487594421    0.345100396498629  0.0000
  O1     O1        0.843891563786314    0.553537717667516    0.668962247513103  0.0000
  O3     O3        0.657817285590459    0.504499821760282    0.674516934021028  0.0000
  O3     O3        0.247058875661580    0.220460603410219    0.297560747146123  0.0000
  O1     O1        0.260152124463471    0.763226090987652    0.301328857278738  0.0000
  O1     O1        0.762101359434545    0.252417173976337    0.714857641699135  0.0000
  O3     O3        0.731671149716085    0.783739882474336    0.736515837818963  0.0000
  O3     O3        0.126061362204261    0.312197191610034    0.138221957964763  0.0000
  O1     O1        0.379958214776976    0.684955554928717    0.139250376330962  0.0000
  O1     O1        0.879648377875528    0.345672691144495    0.881611678796963  0.0000
  O3     O3        0.622104258740043    0.674863138752802    0.879600353962155  0.0000
  O1     O1        0.856903183627746    0.744830125065289    0.893581477813991  0.0000
  O1     O1        0.638487896036371    0.265194745238536    0.880430035479323  0.0000
  O1     O1        0.134496497041613    0.731664147202477    0.142412169014310  0.0000
  O3     O3        0.358231184017284    0.279393175071688    0.139794238414805  0.0000
  O1     O1        0.656911245013677    0.474053646683154    0.095583833575898  0.0000
  O1     O1        0.839781729106330    0.529412614568050    0.104643286276004  0.0000
  O1     O1        0.341945066539538    0.479494721839689    0.921719241412393  0.0000
  O3     O3        0.156665504523239    0.506333528941463    0.937883429680022  0.0000
  O1     O1        0.764773775225045    0.230689749157331    0.035840450551154  0.0000
  O1     O1        0.733359055578539    0.781383707827414    0.057867345503358  0.0000
  O3     O3        0.232950347849271    0.227431419196066    0.979094755948993  0.0000
  O1     O1        0.259075955116101    0.767043890698899    0.983235213663013  0.0000
