data_c00028.vasp
_audit_creation_method             Generated by GULP
_audit_author_name                 Salvador R. G. Balestra
_symmetry_space_group_name_H-M     'P 1             '
_symmetry_Int_Tables_number        1

loop_
_symmetry_equiv_pos_site_id
_symmetry_equiv_pos_as_xyz
_cell_length_a                       17.1478
_cell_length_b                        7.8520
_cell_length_c                       10.6043
_cell_angle_alpha                   90.7569
_cell_angle_beta                    91.1027
_cell_angle_gamma                   86.6354

loop_
_atom_site_label
_atom_site_type_symbol
_atom_site_fract_x
_atom_site_fract_y
_atom_site_fract_z
_atom_site_charge
  Ge     Ge        0.052090000000021    0.000000000000000    0.372269999999958  0.0000
  Ge     Ge        0.456298450415565    0.971318407470537    0.406126980265128  0.0000
  Ge     Ge        0.953741956667661    0.969853599879964    0.629750179591482  0.0000
  Ge     Ge        0.528261211958856    0.049140380371652    0.678619509886781  0.0000
  Ge     Ge        0.582726157839514    0.042357088802688    0.194372615774467  0.0000
  Ge     Ge        0.947907581655358    0.992332386469006    0.113347096262866  0.0000
  Ge     Ge        0.462507743755149    0.947220770553317    0.955367060860370  0.0000
  Ge     Ge        0.067253484525126    0.000766132438479    0.873438199141543  0.0000
  Ge     Ge        0.157300429543815    0.299752340167253    0.294172966822186  0.0000
  Ge     Ge        0.369148380076167    0.639555786496899    0.319133832985793  0.0000
  Ge     Ge        0.827728824027623    0.273068447406141    0.752717432582050  0.0000
  Ge     Ge        0.657849841859386    0.758323445308502    0.747187816936798  0.0000
  Ge     Ge        0.844641977916176    0.688585667067654    0.729626459977515  0.0000
  Ge     Ge        0.644571174041231    0.333157389373043    0.764353350008743  0.0000
  Ge     Ge        0.180721786697965    0.709796213936658    0.305890369718519  0.0000
  Ge     Ge        0.651983041957529    0.369552601361237    0.075705757466187  0.0000
  Ge     Ge        0.185795883471065    0.706776365630692    0.002772422912669  0.0000
  Ge     Ge        0.373845314323794    0.620099182938921    0.008652063028194  0.0000
  Ge     Ge        0.161359689698985    0.302613894641443    0.993435635699484  0.0000
  Ge     Ge        0.662352385233821    0.764297427392675    0.043020372797708  0.0000
  Ge     Ge        0.840152310497353    0.323497352048110    0.067320321812065  0.0000
  Si     Si        0.334762155325858    0.265472486416425    0.308155106363441  0.0000
  Si     Si        0.848298540083428    0.700420880275842    0.019609596619380  0.0000
  Si     Si        0.338899804240334    0.252150175114140    0.016635076010230  0.0000
  O1     O1        0.089657816051074    0.197724154602950    0.377040099007858  0.0000
  O1     O1        0.433040406094216    0.762686731511125    0.402019894556661  0.0000
  O1     O1        0.889232283720361    0.132685601411429    0.676384624652747  0.0000
  O1     O1        0.594671136595250    0.879951662840753    0.652630864440884  0.0000
  O1     O1        0.908352028126914    0.780703471456399    0.633739943036566  0.0000
  O1     O1        0.572971866753091    0.238841712074348    0.680491186491331  0.0000
  O1     O1        0.127402562326710    0.849073981988106    0.399761257022128  0.0000
  O3     O3        0.385639058126998    0.089725227167722    0.318786696997824  0.0000
  O1     O1        0.977588220579025    0.998106871182789    0.475490618630384  0.0000
  O1     O1        0.460684506923519    0.046132819906339    0.556776845260628  0.0000
  O1     O1        0.016389543970604    0.939321120644063    0.225181340204556  0.0000
  O1     O1        0.545172385111891    0.003011571564054    0.336600971548939  0.0000
  O1     O1        0.037698191069709    0.971863913519691    0.719471912029295  0.0000
  O1     O1        0.479271570076167    0.043363179324686    0.817549912237590  0.0000
  O1     O1        0.593921203835761    0.252189429319275    0.171592075935902  0.0000
  O3     O3        0.871000715237814    0.853607843599050    0.109343716274258  0.0000
  O3     O3        0.383773628832484    0.070876130750984    0.019891734856921  0.0000
  O1     O1        0.143377584238164    0.855489552740183    0.903947158898902  0.0000
  O1     O1        0.435014540538907    0.742867823247448    0.927794505067731  0.0000
  O1     O1        0.098910118921882    0.203626501392375    0.893085726374042  0.0000
  O1     O1        0.667172167418831    0.916502778487679    0.158521966912377  0.0000
  O1     O1        0.903916350402258    0.188207224365373    0.149266750625491  0.0000
  O1     O1        0.532703279518802    0.938258040353586    0.071817306534042  0.0000
  O1     O1        0.988888666026517    0.976537219708353    0.967783944077333  0.0000
  O1     O1        0.139334246114464    0.515381993397510    0.301108132421862  0.0000
  O3     O3        0.383100249981902    0.422916363655217    0.358466180004949  0.0000
  O1     O1        0.842722347224716    0.475649907304277    0.700809968293443  0.0000
  O1     O1        0.641720307256017    0.545740349577776    0.733181555422602  0.0000
  O3     O3        0.249706317445432    0.251810382892151    0.364717663294226  0.0000
  O1     O1        0.275153285217215    0.691040316805355    0.362880169415270  0.0000
  O1     O1        0.732128075353738    0.236373115366906    0.719056450712542  0.0000
  O1     O1        0.752608739874355    0.788872783020063    0.711752269777406  0.0000
  O1     O1        0.147671260732650    0.223501793720873    0.141940150718222  0.0000
  O1     O1        0.387480964138779    0.677640689688360    0.164321524483702  0.0000
  O1     O1        0.840690347562737    0.253860600971161    0.912891545104080  0.0000
  O1     O1        0.627992882511649    0.829404083645273    0.895547716337112  0.0000
  O3     O3        0.881572052195923    0.724378673489613    0.880939267166788  0.0000
  O1     O1        0.637283027209757    0.298607052693464    0.924152911394081  0.0000
  O1     O1        0.185046850078199    0.784881307557496    0.154376269353287  0.0000
  O2     O2        0.312513839315665    0.317617573127280    0.160332483287501  0.0000
  O1     O1        0.621748518983147    0.579764623093269    0.092025931691208  0.0000
  O3     O3        0.879759278858183    0.521384639678894    0.078672143985478  0.0000
  O3     O3        0.393507585910201    0.402549477039889    0.976031133842598  0.0000
  O1     O1        0.139312013905379    0.517652478200817    0.993554354743904  0.0000
  O1     O1        0.747376101486762    0.326967718094360    0.125051554871568  0.0000
  O3     O3        0.755095108561741    0.679101938557587    0.997207461594289  0.0000
  O3     O3        0.256921963949683    0.251972963809601    0.942578485319359  0.0000
  O1     O1        0.279885998631000    0.661343189561639    0.957009792258919  0.0000
