data_c00075.vasp
_audit_creation_method             Generated by GULP
_audit_author_name                 Salvador R. G. Balestra
_symmetry_space_group_name_H-M     'P 1             '
_symmetry_Int_Tables_number        1

loop_
_symmetry_equiv_pos_site_id
_symmetry_equiv_pos_as_xyz
_cell_length_a                       17.7839
_cell_length_b                        7.8617
_cell_length_c                       10.4866
_cell_angle_alpha                   89.6415
_cell_angle_beta                    90.4656
_cell_angle_gamma                   90.3095

loop_
_atom_site_label
_atom_site_type_symbol
_atom_site_fract_x
_atom_site_fract_y
_atom_site_fract_z
_atom_site_charge
  Ge     Ge        0.052090000000021    0.000000000000000    0.372269999999958  0.0000
  Ge     Ge        0.450839155173419    0.971044704911366    0.327668471019082  0.0000
  Ge     Ge        0.949885543468736    0.003424589966689    0.627790634895691  0.0000
  Ge     Ge        0.547683412129128    0.965930713212292    0.588452689504351  0.0000
  Ge     Ge        0.550887358865920    0.980831655687286    0.068354365019264  0.0000
  Ge     Ge        0.944183349843593    0.012046521178778    0.123958072405142  0.0000
  Ge     Ge        0.436278769485732    0.982449274248582    0.827483564419771  0.0000
  Ge     Ge        0.150249407322158    0.311784548476664    0.257662282733256  0.0000
  Ge     Ge        0.348451207461596    0.661777733141631    0.252381896627648  0.0000
  Ge     Ge        0.848655480981463    0.314749859987367    0.705673555369275  0.0000
  Ge     Ge        0.648391436789819    0.658059211902133    0.696129291456055  0.0000
  Ge     Ge        0.826909599206509    0.721107103838250    0.694320683267993  0.0000
  Ge     Ge        0.669390029723884    0.251148751416296    0.705915480663322  0.0000
  Ge     Ge        0.170628252349204    0.717785786419953    0.260047017388025  0.0000
  Ge     Ge        0.329277358796787    0.251611215750506    0.250589163794756  0.0000
  Ge     Ge        0.669710006378051    0.272297673068658    0.015021175876961  0.0000
  Ge     Ge        0.826315018953463    0.731235758845826    0.004076542422183  0.0000
  Ge     Ge        0.325190421381340    0.272170996368358    0.943022274828618  0.0000
  Ge     Ge        0.163760986837900    0.720424012535914    0.950755800798228  0.0000
  Ge     Ge        0.143553483662179    0.318339021202913    0.947538150816182  0.0000
  Ge     Ge        0.850853628008485    0.328425778643179    0.018211186615621  0.0000
  Si     Si        0.048336175167997    0.002245818349418    0.880589665370587  0.0000
  Si     Si        0.341586612605294    0.673465937885388    0.949057724490523  0.0000
  Si     Si        0.649547661750086    0.668227341126306    0.999951125220515  0.0000
  O1     O1        0.086193415210256    0.201198738948967    0.346214824917916  0.0000
  O1     O1        0.413024198423220    0.769814150297698    0.341810058630196  0.0000
  O1     O1        0.911358570133706    0.202204403691723    0.616685679090056  0.0000
  O1     O1        0.580492742933378    0.763031468808076    0.612231892593895  0.0000
  O1     O1        0.880045761845080    0.854984206193639    0.602488759665856  0.0000
  O1     O1        0.618555742192584    0.108224280888265    0.618868162503128  0.0000
  O1     O1        0.121780418944095    0.853625548217778    0.353713833557731  0.0000
  O1     O1        0.380776977901775    0.119623123236390    0.346085893998725  0.0000
  O1     O1        0.023239807489823    0.981233525098293    0.527486667960543  0.0000
  O1     O1        0.524180285556008    0.995540249413311    0.429921431528153  0.0000
  O1     O1        0.975200288981603    0.966871263435201    0.274971996759814  0.0000
  O1     O1        0.478750242485200    0.994767409922652    0.171705590321593  0.0000
  O3     O3        0.981000144713901    0.969855744336479    0.783769873314263  0.0000
  O1     O1        0.466064520111913    0.989946290460778    0.672162726670360  0.0000
  O1     O1        0.616769916165619    0.135888578959823    0.104107968819089  0.0000
  O1     O1        0.866912428520580    0.886769866580680    0.092970112605539  0.0000
  O1     O1        0.372375168670312    0.143659181490875    0.841440453834095  0.0000
  O3     O3        0.116639320804574    0.870449198219318    0.861315883330274  0.0000
  O3     O3        0.396655759264465    0.786225975632624    0.863277073967652  0.0000
  O3     O3        0.080664760221458    0.192818507074849    0.862866883270780  0.0000
  O3     O3        0.592729979415989    0.781703951044099    0.079661716682496  0.0000
  O1     O1        0.915213231508147    0.219182618398197    0.108474652116779  0.0000
  O1     O1        0.515959759873805    0.013266515050190    0.917031417297173  0.0000
  O3     O3        0.018603938793038    0.971113329121790    0.023814634668172  0.0000
  O1     O1        0.162318863329857    0.512024063917116    0.316771620433990  0.0000
  O1     O1        0.340100004388785    0.457640048132733    0.304285261740235  0.0000
  O1     O1        0.838008719558008    0.514366523110238    0.643978755937504  0.0000
  O1     O1        0.657624833375483    0.453794964943079    0.644412448571070  0.0000
  O1     O1        0.234805760618596    0.205657356309694    0.255056215674980  0.0000
  O1     O1        0.264332668913366    0.768229702674298    0.261188597862176  0.0000
  O1     O1        0.763800154160688    0.207113719780405    0.704440240377575  0.0000
  O1     O1        0.732661944351477    0.765360430464757    0.683385381491915  0.0000
  O1     O1        0.116191031247229    0.324346361406370    0.103952448119562  0.0000
  O3     O3        0.374086228625173    0.662810302878866    0.092306255436122  0.0000
  O1     O1        0.878824252974823    0.326113089048027    0.861638586600678  0.0000
  O3     O3        0.620824854062607    0.650746603172918    0.854620936274418  0.0000
  O1     O1        0.857265876311521    0.736427364617374    0.849981256258637  0.0000
  O1     O1        0.639515086543811    0.246129198430510    0.860471239673202  0.0000
  O1     O1        0.135963908965100    0.724273573365369    0.106774670182415  0.0000
  O1     O1        0.359290998201580    0.241857764979011    0.094728764574136  0.0000
  O3     O3        0.657348390480271    0.482415086670141    0.062209891456834  0.0000
  O1     O1        0.846004642733928    0.534733068366812    0.068962882487369  0.0000
  O3     O3        0.334371669033420    0.483561417476473    0.894913667663693  0.0000
  O1     O1        0.145332726596910    0.521954922431918    0.888686697689930  0.0000
  O1     O1        0.763763792774736    0.232104106601115    0.027693037341312  0.0000
  O3     O3        0.730181202449793    0.762518549578994    0.997023566440171  0.0000
  O1     O1        0.230896529114820    0.227315173566660    0.941646003035191  0.0000
  O3     O3        0.259535676433380    0.760295233855091    0.949545697629464  0.0000
