data_c00056.vasp
_audit_creation_method             Generated by GULP
_audit_author_name                 Salvador R. G. Balestra
_symmetry_space_group_name_H-M     'P 1             '
_symmetry_Int_Tables_number        1

loop_
_symmetry_equiv_pos_site_id
_symmetry_equiv_pos_as_xyz
_cell_length_a                       17.8677
_cell_length_b                        7.8780
_cell_length_c                       10.3966
_cell_angle_alpha                   89.3887
_cell_angle_beta                    89.6571
_cell_angle_gamma                   89.8263

loop_
_atom_site_label
_atom_site_type_symbol
_atom_site_fract_x
_atom_site_fract_y
_atom_site_fract_z
_atom_site_charge
  Ge     Ge        0.052090000000021    0.000000000000000    0.372269999999958  0.0000
  Ge     Ge        0.445672440693583    0.979114329224377    0.342123078079855  0.0000
  Ge     Ge        0.946600125751007    0.004335907606104    0.623606141802800  0.0000
  Ge     Ge        0.551626864049942    0.976004540141586    0.592777314730950  0.0000
  Ge     Ge        0.546428862482187    0.978090396996882    0.082344578404649  0.0000
  Ge     Ge        0.942609197625388    0.002638259299744    0.128474160831837  0.0000
  Ge     Ge        0.439503498980210    0.984906067601037    0.835994876001628  0.0000
  Ge     Ge        0.049464846135390    0.006751682233375    0.879550422641471  0.0000
  Ge     Ge        0.148936101668840    0.315937428195670    0.261303092497196  0.0000
  Ge     Ge        0.341481591934631    0.673509544037982    0.264231349654338  0.0000
  Ge     Ge        0.845975618733438    0.318297368707647    0.694517732259496  0.0000
  Ge     Ge        0.826289024374654    0.722136263915609    0.698268188521563  0.0000
  Ge     Ge        0.666186676013730    0.270066513529360    0.702028617960808  0.0000
  Ge     Ge        0.329570069630693    0.266935260224627    0.264797667285272  0.0000
  Ge     Ge        0.668128505402768    0.257470293059380    0.014304412251506  0.0000
  Ge     Ge        0.824818458838321    0.723332022239626    0.010514904490775  0.0000
  Ge     Ge        0.328213866642394    0.275724186225936    0.954442924466747  0.0000
  Ge     Ge        0.170046005382145    0.724474244888244    0.950980206705453  0.0000
  Ge     Ge        0.147201471830730    0.322379745265587    0.950845640624596  0.0000
  Ge     Ge        0.647050001879856    0.663636021427443    0.010668178466219  0.0000
  Ge     Ge        0.846842920778585    0.315446141139050    0.009660680167319  0.0000
  Si     Si        0.650412854110802    0.669840224237447    0.704663097313609  0.0000
  Si     Si        0.166135143225695    0.715381072955789    0.257451580834891  0.0000
  Si     Si        0.345415627039650    0.677744379734946    0.957861476419499  0.0000
  O1     O1        0.089482798716643    0.199353943075682    0.356164876526593  0.0000
  O1     O1        0.400079044707068    0.787942933715658    0.357449379482747  0.0000
  O1     O1        0.908418615527823    0.203243195878592    0.604707432270861  0.0000
  O3     O3        0.593698540460897    0.781543301426893    0.620723354411942  0.0000
  O1     O1        0.874824854494554    0.861392165439402    0.603342512319618  0.0000
  O1     O1        0.612485120550300    0.141603054027030    0.609131060495538  0.0000
  O3     O3        0.117878115494596    0.845582490456987    0.340444898775213  0.0000
  O1     O1        0.380229512135542    0.137000049800640    0.364298165183826  0.0000
  O1     O1        0.023451579989368    0.973490381352012    0.529493851914757  0.0000
  O1     O1        0.523441106366316    0.985003718506784    0.434423098284209  0.0000
  O1     O1        0.971619791132625    0.983067542513041    0.284834425925324  0.0000
  O1     O1        0.473321646061163    0.004865552980286    0.183660266305858  0.0000
  O1     O1        0.976044516185526    0.976550012238846    0.780583132220158  0.0000
  O1     O1        0.469906558003082    0.990424981181608    0.679099422348694  0.0000
  O1     O1        0.618105525218303    0.120342690178105    0.108149921547034  0.0000
  O1     O1        0.871306255344510    0.861332635052386    0.106033800302317  0.0000
  O1     O1        0.374745898524449    0.144600489978987    0.851888086713826  0.0000
  O1     O1        0.123577156063042    0.867473392802204    0.858820588772943  0.0000
  O3     O3        0.403537416634438    0.786160914251738    0.874184156612139  0.0000
  O1     O1        0.085897981737336    0.207278211258497    0.861077989435370  0.0000
  O1     O1        0.582075504008381    0.775241775332834    0.095548362552286  0.0000
  O1     O1        0.911493259358538    0.205935521107740    0.097575704577572  0.0000
  O1     O1        0.516809341543933    0.018338135054112    0.927597919719174  0.0000
  O1     O1        0.019130787522949    0.963460718355634    0.033773984982633  0.0000
  O3     O3        0.156079531938125    0.524169605393123    0.312212069894658  0.0000
  O1     O1        0.339791341085450    0.470554457031191    0.319895405304510  0.0000
  O1     O1        0.840782752719100    0.522135534418926    0.638390148509542  0.0000
  O3     O3        0.658329073754510    0.480871974580758    0.650164118983199  0.0000
  O1     O1        0.235761238050873    0.222267813217550    0.265597621529686  0.0000
  O3     O3        0.253074893678760    0.765140507657057    0.265428478591840  0.0000
  O1     O1        0.759586784275265    0.221221740564749    0.691034193544419  0.0000
  O3     O3        0.730914708308947    0.762428683783513    0.702093124642698  0.0000
  O1     O1        0.115043108953386    0.313218136977595    0.107627141035361  0.0000
  O3     O3        0.372423520531815    0.674200287441911    0.105339894232730  0.0000
  O1     O1        0.875829226250874    0.321028265745724    0.851724333313950  0.0000
  O3     O3        0.620012196557990    0.658010697661063    0.850195576356973  0.0000
  O1     O1        0.856898355388077    0.734694323700104    0.854474640966590  0.0000
  O1     O1        0.637082763639016    0.248642075939238    0.857847452427088  0.0000
  O3     O3        0.139807656532987    0.720988529447443    0.110085950476760  0.0000
  O1     O1        0.361045961400892    0.251304993643523    0.108024609578223  0.0000
  O1     O1        0.655623342161193    0.462064794170407    0.069060139429529  0.0000
  O1     O1        0.837177020448233    0.517727526613788    0.065436895824186  0.0000
  O3     O3        0.339044220426589    0.487133424121706    0.906636547892978  0.0000
  O1     O1        0.152571416401429    0.525074915872419    0.892774587241209  0.0000
  O1     O1        0.761928166943390    0.212521984235060    0.016530115944283  0.0000
  O1     O1        0.731046591582110    0.768728045655393    0.015622955472786  0.0000
  O1     O1        0.234689764541513    0.230715556285638    0.951497828729314  0.0000
  O3     O3        0.264546997996575    0.768363414065810    0.949227875237656  0.0000
