data_c00045.vasp
_audit_creation_method             Generated by GULP
_audit_author_name                 Salvador R. G. Balestra
_symmetry_space_group_name_H-M     'P 1             '
_symmetry_Int_Tables_number        1

loop_
_symmetry_equiv_pos_site_id
_symmetry_equiv_pos_as_xyz
_cell_length_a                       17.6990
_cell_length_b                        7.8504
_cell_length_c                       10.1937
_cell_angle_alpha                   91.7593
_cell_angle_beta                    90.3863
_cell_angle_gamma                   91.1865

loop_
_atom_site_label
_atom_site_type_symbol
_atom_site_fract_x
_atom_site_fract_y
_atom_site_fract_z
_atom_site_charge
  Ge     Ge        0.052090000000021    0.000000000000000    0.372269999999958  0.0000
  Ge     Ge        0.443181396562707    0.053665970542821    0.372773387770577  0.0000
  Ge     Ge        0.942728038211749    0.030960383473231    0.618212470673375  0.0000
  Ge     Ge        0.548722226534138    0.990465747890869    0.624423006239483  0.0000
  Ge     Ge        0.550070706781947    0.993854134185794    0.124525296528871  0.0000
  Ge     Ge        0.936765292026532    0.047975492464798    0.134033765069478  0.0000
  Ge     Ge        0.442294332750644    0.033853548901808    0.875244049808360  0.0000
  Ge     Ge        0.039775511701717    0.972995193391437    0.880186073270957  0.0000
  Ge     Ge        0.167403069125687    0.293910961174155    0.265556721808578  0.0000
  Ge     Ge        0.320849472520438    0.764473584850830    0.257644645375279  0.0000
  Ge     Ge        0.843859094885262    0.346661324603037    0.691255431170257  0.0000
  Ge     Ge        0.642551451275060    0.673827251783503    0.693814947006951  0.0000
  Ge     Ge        0.822483032133047    0.748797437663372    0.693492225393958  0.0000
  Ge     Ge        0.349198039026127    0.365353990357320    0.262357698098640  0.0000
  Ge     Ge        0.666137486318407    0.287341031840734    0.006107640553026  0.0000
  Ge     Ge        0.818908687244006    0.759640499206696    0.011379099578559  0.0000
  Ge     Ge        0.342933446206100    0.347400582679654    0.942902110088111  0.0000
  Ge     Ge        0.141738921267139    0.664831319908595    0.937500987721741  0.0000
  Ge     Ge        0.318673859431263    0.749222845108032    0.937163464492147  0.0000
  Ge     Ge        0.164149491941592    0.262449454056451    0.949630997560683  0.0000
  Ge     Ge        0.846482685365877    0.357959153230427    0.011848169972518  0.0000
  Si     Si        0.666984243704262    0.277076608498141    0.695051293792879  0.0000
  Si     Si        0.144733050869722    0.687177252694744    0.252647956280367  0.0000
  Si     Si        0.641591679550913    0.684709379790088    0.002407723186592  0.0000
  O1     O1        0.120173834630252    0.156590364414551    0.365351143352618  0.0000
  O1     O1        0.364637858683990    0.925226120225128    0.346314728507157  0.0000
  O1     O1        0.904754385039326    0.228215684099087    0.598389872892699  0.0000
  O1     O1        0.582238604693351    0.787545118413830    0.599785427255577  0.0000
  O1     O1        0.871239254676841    0.881473396387151    0.593622151325286  0.0000
  O3     O3        0.620927283339753    0.140979302658241    0.604176069873621  0.0000
  O3     O3        0.082516335444048    0.799512972157495    0.325934154693371  0.0000
  O1     O1        0.416935889346839    0.258935209931267    0.346233707427142  0.0000
  O1     O1        0.023157074006103    0.992695199571416    0.533807228322489  0.0000
  O1     O1        0.471004380031641    0.033991535655627    0.534138523376099  0.0000
  O1     O1        0.969242463011275    0.046303718499130    0.293041284301542  0.0000
  O1     O1        0.521732184572527    0.995502925822327    0.285614362064646  0.0000
  O1     O1        0.965447467448868    0.017114151430537    0.783502448535176  0.0000
  O1     O1        0.521012778390149    0.998646914075375    0.786494190072446  0.0000
  O1     O1        0.617229057048938    0.151226458503769    0.102206008962294  0.0000
  O1     O1        0.858497274281719    0.916537403851502    0.110286297306631  0.0000
  O1     O1        0.405041332448787    0.231351823364139    0.851304667197108  0.0000
  O1     O1        0.073212835165876    0.769096594037162    0.856030085303188  0.0000
  O1     O1        0.371815340846677    0.882624742208732    0.844873734663713  0.0000
  O1     O1        0.113721122158486    0.115483590784630    0.857747705937302  0.0000
  O3     O3        0.583617714501462    0.791839757168479    0.089538028889325  0.0000
  O1     O1        0.912642439069530    0.252780455421463    0.098887252876159  0.0000
  O1     O1        0.469341384640260    0.030415750425616    0.038366168083972  0.0000
  O1     O1        0.011447637861238    0.981824650237332    0.041437445376103  0.0000
  O3     O3        0.154056541058789    0.504692261788737    0.318153210804486  0.0000
  O1     O1        0.341405038924088    0.571158099776466    0.322498040706757  0.0000
  O1     O1        0.836284645611768    0.544625711732917    0.631560158444188  0.0000
  O3     O3        0.653271643389829    0.465422442375466    0.640143168979206  0.0000
  O1     O1        0.262706630782951    0.260921264558565    0.270980276226814  0.0000
  O3     O3        0.223830063570142    0.792749047161485    0.259000110763360  0.0000
  O3     O3        0.755823643054468    0.242220331419664    0.694442884548190  0.0000
  O1     O1        0.727370691632518    0.782931043865779    0.691282965246609  0.0000
  O1     O1        0.132894370928542    0.255190679775728    0.109682204411381  0.0000
  O1     O1        0.349603935451710    0.769268913818324    0.097518704339002  0.0000
  O1     O1        0.874690977757640    0.365024597840105    0.851157546575365  0.0000
  O3     O3        0.610262251977094    0.668627403329159    0.853952137640834  0.0000
  O1     O1        0.853542027562538    0.769441677807202    0.854456144743372  0.0000
  O3     O3        0.636784557681529    0.265226652476550    0.843883985142165  0.0000
  O3     O3        0.120766459467964    0.647156021863655    0.103000365110139  0.0000
  O1     O1        0.375497169423615    0.377405830157544    0.101363217586200  0.0000
  O3     O3        0.651433033965775    0.497468725195194    0.058185332117595  0.0000
  O1     O1        0.838245943644358    0.563114070484496    0.071893841157221  0.0000
  O1     O1        0.328738416046231    0.541781551151892    0.878809850163818  0.0000
  O1     O1        0.150923666550624    0.459881676431477    0.882249561514919  0.0000
  O1     O1        0.760560908648358    0.251045799156725    0.018876833894641  0.0000
  O3     O3        0.722103113509381    0.784532303963332    0.002339539009019  0.0000
  O1     O1        0.259429674295842    0.229735971736097    0.951160124138711  0.0000
  O1     O1        0.223773004821660    0.785915482690499    0.927685419995027  0.0000
