data_c00017.vasp
_audit_creation_method             Generated by GULP
_audit_author_name                 Salvador R. G. Balestra
_symmetry_space_group_name_H-M     'P 1             '
_symmetry_Int_Tables_number        1

loop_
_symmetry_equiv_pos_site_id
_symmetry_equiv_pos_as_xyz
_cell_length_a                       17.6308
_cell_length_b                        7.9130
_cell_length_c                       10.4104
_cell_angle_alpha                   88.3040
_cell_angle_beta                    90.5051
_cell_angle_gamma                   90.6235

loop_
_atom_site_label
_atom_site_type_symbol
_atom_site_fract_x
_atom_site_fract_y
_atom_site_fract_z
_atom_site_charge
  Ge     Ge        0.052090000000021    0.000000000000000    0.372269999999958  0.0000
  Ge     Ge        0.445921586165656    0.026710248884569    0.402295116420839  0.0000
  Ge     Ge        0.947753412716365    0.039996114736228    0.623451515319628  0.0000
  Ge     Ge        0.545636575503856    0.000134455357829    0.660845201904264  0.0000
  Ge     Ge        0.556466777854915    0.994039319349714    0.163247851289762  0.0000
  Ge     Ge        0.949942701401496    0.039123051912274    0.113206938093778  0.0000
  Ge     Ge        0.444503425106346    0.056596819054679    0.918985659449446  0.0000
  Ge     Ge        0.059730169369234    0.028347620128293    0.865803629282309  0.0000
  Ge     Ge        0.167435732818620    0.292659389223067    0.281729257655071  0.0000
  Ge     Ge        0.335686747710089    0.729234739929923    0.296176881406703  0.0000
  Ge     Ge        0.851428590489574    0.351402426877190    0.735579881638385  0.0000
  Ge     Ge        0.645129192697109    0.683166491405700    0.728784635878317  0.0000
  Ge     Ge        0.826297756829728    0.752059654102508    0.731318918194592  0.0000
  Ge     Ge        0.669568258229590    0.281438918349284    0.736205566502335  0.0000
  Ge     Ge        0.154132798317731    0.700149464421553    0.299302763135482  0.0000
  Ge     Ge        0.672395198813625    0.280399647572432    0.046723641897368  0.0000
  Ge     Ge        0.826512403176534    0.756893438775325    0.043777618271908  0.0000
  Ge     Ge        0.345745931962407    0.372687579585697    0.967363123198459  0.0000
  Ge     Ge        0.159606331680924    0.340967771241799    0.967943310305232  0.0000
  Ge     Ge        0.645390930076878    0.681828703260819    0.042229117832062  0.0000
  Ge     Ge        0.853400007394687    0.358984574434202    0.046213683720804  0.0000
  Si     Si        0.345400155185720    0.329639346012177    0.275409434424817  0.0000
  Si     Si        0.157048030899662    0.728474429940916    0.999991753290603  0.0000
  Si     Si        0.338901536586969    0.754906130091630    0.999366144118783  0.0000
  O1     O1        0.120713345435635    0.155631520144651    0.382636207504622  0.0000
  O1     O1        0.388257053297948    0.851739503273263    0.396004628598001  0.0000
  O1     O1        0.917341475766387    0.239747952764911    0.653994646547519  0.0000
  O1     O1        0.581475385772070    0.801444439232365    0.640310908032101  0.0000
  O1     O1        0.874679116345406    0.897765190908365    0.638636147476138  0.0000
  O1     O1        0.619126515024164    0.144197084633855    0.644603278115185  0.0000
  O1     O1        0.094240576926913    0.806735410137431    0.396261542050741  0.0000
  O3     O3        0.404013009831038    0.214589971567533    0.354808465326345  0.0000
  O1     O1        0.975868688175940    0.033573450764294    0.465194445562136  0.0000
  O1     O1        0.471659874600593    0.046710056752171    0.561235424574124  0.0000
  O1     O1        0.023978015909213    0.004638104600215    0.213014704939387  0.0000
  O1     O1        0.528160225334555    0.995477741762078    0.320403067128438  0.0000
  O1     O1        0.027675309852486    0.991288359896581    0.712924565145671  0.0000
  O1     O1        0.514179618623793    0.004308672662953    0.818002714235871  0.0000
  O1     O1        0.632905983100158    0.128493403967151    0.145072935858927  0.0000
  O1     O1        0.875717443933872    0.897369916681800    0.134146159800363  0.0000
  O1     O1        0.404600790169785    0.249689677268181    0.881463268550213  0.0000
  O3     O3        0.128433240128352    0.881835317765847    0.911492487529002  0.0000
  O3     O3        0.367709570918319    0.912683139007670    0.915819256896492  0.0000
  O1     O1        0.104342048989094    0.221995180938050    0.869605683532643  0.0000
  O1     O1        0.580269239492938    0.791116786765592    0.126067765857544  0.0000
  O1     O1        0.916685362841614    0.240284222492748    0.133900565253022  0.0000
  O1     O1        0.481654624833618    0.064153587814795    0.070950280429177  0.0000
  O1     O1        0.979972836471744    0.017844723278514    0.956970014808361  0.0000
  O1     O1        0.154220067753489    0.490805164546190    0.340118093637119  0.0000
  O3     O3        0.341673579542841    0.515108453819416    0.334736581036334  0.0000
  O1     O1        0.839802543471222    0.552695094151554    0.673122890632156  0.0000
  O1     O1        0.655729104618260    0.484031140788154    0.673856059806627  0.0000
  O3     O3        0.262651171102050    0.242606291428263    0.281336826375144  0.0000
  O1     O1        0.243325516396641    0.786562593733636    0.312583174770489  0.0000
  O1     O1        0.765509119933641    0.244634054459188    0.734291700501735  0.0000
  O1     O1        0.730871684077070    0.790508768050126    0.728120762152660  0.0000
  O1     O1        0.136674672516983    0.286706462072054    0.124371066205740  0.0000
  O3     O3        0.372754446605173    0.768279665947113    0.143418274141530  0.0000
  O1     O1        0.884092064740115    0.373481912917576    0.889683134407944  0.0000
  O1     O1        0.615906778940641    0.665082278124936    0.885945285002482  0.0000
  O1     O1        0.857727341419067    0.764282692142479    0.887440550636389  0.0000
  O1     O1        0.637251455919577    0.265422212641798    0.892204877585960  0.0000
  O3     O3        0.121501665338931    0.728398807529063    0.140854623157052  0.0000
  O3     O3        0.369884305621913    0.346366976204144    0.128098115249959  0.0000
  O1     O1        0.656377948002998    0.479616146811645    0.103340551073386  0.0000
  O1     O1        0.842573454945722    0.554794202899811    0.106251874743363  0.0000
  O3     O3        0.362692425787621    0.584441954721958    0.930195070461869  0.0000
  O3     O3        0.137751409906879    0.551747321458603    0.935337020609402  0.0000
  O1     O1        0.768222926399502    0.251008468339457    0.040301454767654  0.0000
  O1     O1        0.730816432933349    0.790796221732470    0.046049700681154  0.0000
  O1     O1        0.253998909587813    0.311054029129589    0.939887358475818  0.0000
  O2     O2        0.248327376788319    0.736215971143304    0.023607456590084  0.0000
