data_c00082.vasp
_audit_creation_method             Generated by GULP
_audit_author_name                 Salvador R. G. Balestra
_symmetry_space_group_name_H-M     'P 1             '
_symmetry_Int_Tables_number        1

loop_
_symmetry_equiv_pos_site_id
_symmetry_equiv_pos_as_xyz
_cell_length_a                       17.6056
_cell_length_b                        7.8214
_cell_length_c                       10.3670
_cell_angle_alpha                   90.3917
_cell_angle_beta                    90.2859
_cell_angle_gamma                   91.2281

loop_
_atom_site_label
_atom_site_type_symbol
_atom_site_fract_x
_atom_site_fract_y
_atom_site_fract_z
_atom_site_charge
  Ge     Ge        0.052090000000021    0.000000000000000    0.372269999999958  0.0000
  Ge     Ge        0.449655515731511    0.050766079977766    0.322930637696768  0.0000
  Ge     Ge        0.950100223345134    0.056550280469349    0.626674584905864  0.0000
  Ge     Ge        0.548241850882746    0.004910225073992    0.582217325163692  0.0000
  Ge     Ge        0.549392986109087    0.995443935456614    0.063969868341379  0.0000
  Ge     Ge        0.943951102164514    0.059473473798728    0.124609496195315  0.0000
  Ge     Ge        0.436577306160072    0.045010558286317    0.820097616545344  0.0000
  Ge     Ge        0.172660451916061    0.283952272284077    0.260917759677478  0.0000
  Ge     Ge        0.324743896690281    0.771339985572169    0.246157414304694  0.0000
  Ge     Ge        0.851801671738038    0.374018478973313    0.694019911578450  0.0000
  Ge     Ge        0.644189376082817    0.693472958661516    0.697840285785476  0.0000
  Ge     Ge        0.823572594716594    0.776978070840975    0.695576115205967  0.0000
  Ge     Ge        0.671397135980118    0.290052811124016    0.692888783430397  0.0000
  Ge     Ge        0.144669936261112    0.685907259972077    0.252173266886160  0.0000
  Ge     Ge        0.351966975506002    0.364758183527041    0.250411505783025  0.0000
  Ge     Ge        0.670763291086726    0.291459024101134    0.004998671832926  0.0000
  Ge     Ge        0.823960999584701    0.773855555561427    0.009816168301046  0.0000
  Ge     Ge        0.140592137738393    0.674318075948798    0.937400391516383  0.0000
  Ge     Ge        0.321888615130847    0.749059834709278    0.933959940795229  0.0000
  Ge     Ge        0.163793130094834    0.274848496177492    0.949119233192590  0.0000
  Ge     Ge        0.851765292345329    0.372749872364894    0.008908048882756  0.0000
  Si     Si        0.045396981296786    0.985788490760634    0.879946178667984  0.0000
  Si     Si        0.342271444458892    0.349341766235918    0.944747553065288  0.0000
  Si     Si        0.648182089566810    0.685529409300011    0.005607396965338  0.0000
  O1     O1        0.127941289008588    0.138109974983382    0.357196825586395  0.0000
  O1     O1        0.373022924363010    0.912679063260273    0.343422705023511  0.0000
  O1     O1        0.918314639538535    0.261029699274640    0.610119583557090  0.0000
  O1     O1        0.572954867508727    0.800918453179982    0.624153169205523  0.0000
  O1     O1        0.874184628545960    0.917901678802873    0.603073192062910  0.0000
  O1     O1        0.624176954893106    0.142901828676264    0.598412902856240  0.0000
  O1     O1        0.077581930919125    0.795038244866332    0.336045656777575  0.0000
  O1     O1        0.419694171505429    0.258287128599190    0.334988768562505  0.0000
  O1     O1        0.024622672042867    0.010250359950210    0.531330644397066  0.0000
  O1     O1        0.523928827915167    0.007733279971171    0.420637967636990  0.0000
  O1     O1        0.975102369977489    0.057136281483500    0.281231712769126  0.0000
  O1     O1        0.474929696071797    0.017594351559219    0.163985427308529  0.0000
  O3     O3        0.976899500732350    0.032872042570050    0.788122609935246  0.0000
  O1     O1        0.467966474050487    0.062391841454547    0.663735663669575  0.0000
  O1     O1        0.618012666146718    0.151510229371631    0.094803878140723  0.0000
  O1     O1        0.865578170335797    0.927085158378541    0.105716643736987  0.0000
  O3     O3        0.399680061739778    0.241384146862641    0.860095052535955  0.0000
  O3     O3        0.074821574440192    0.794763193547579    0.854740371657002  0.0000
  O1     O1        0.370109006726621    0.882082033745406    0.831516648181964  0.0000
  O3     O3        0.116328797948608    0.118155316687855    0.861741280971526  0.0000
  O3     O3        0.587588930682827    0.793363259838372    0.083820236176692  0.0000
  O1     O1        0.919543753468341    0.265628654231164    0.092185423298516  0.0000
  O1     O1        0.516968033723144    0.005539211874769    0.907540702484862  0.0000
  O3     O3        0.017848084977157    0.993251199344635    0.028398422115740  0.0000
  O1     O1        0.159309084452582    0.488884310697011    0.317897436628982  0.0000
  O1     O1        0.341109386738458    0.568033535563372    0.304114265388719  0.0000
  O1     O1        0.838429328016558    0.573687917685217    0.634896216304097  0.0000
  O1     O1        0.655476842662318    0.492639000158462    0.634883048575484  0.0000
  O1     O1        0.268131673666193    0.248282537313502    0.260060392000465  0.0000
  O1     O1        0.228705070410766    0.803462995318696    0.249881352730696  0.0000
  O1     O1        0.767405674935747    0.257627034854305    0.691875546060994  0.0000
  O1     O1        0.727622277716925    0.811396326343920    0.687000766310153  0.0000
  O1     O1        0.135498400550087    0.265027379167929    0.107166487219158  0.0000
  O1     O1        0.354723367488565    0.783599121630495    0.087906030885380  0.0000
  O1     O1        0.880111545392848    0.395590315224573    0.852063880170714  0.0000
  O3     O3        0.621852811210507    0.657744675071329    0.857763665972066  0.0000
  O1     O1        0.854324070813284    0.792224294097443    0.853389074481443  0.0000
  O1     O1        0.639651422375481    0.267518909032437    0.848514862053356  0.0000
  O1     O1        0.115315993481456    0.652072070154256    0.096155648865737  0.0000
  O3     O3        0.376106781996712    0.372538218421122    0.088025798723559  0.0000
  O3     O3        0.659413256091656    0.499117069780915    0.064369638605411  0.0000
  O1     O1        0.842995440613136    0.575173757967608    0.070557431320027  0.0000
  O3     O3        0.331359896050774    0.536531638850582    0.886058245614542  0.0000
  O1     O1        0.144712284686497    0.469210466510958    0.879618918309194  0.0000
  O1     O1        0.766646377142998    0.258854734164813    0.012831964339371  0.0000
  O3     O3        0.726413826869508    0.796834859095155    0.005288397264037  0.0000
  O3     O3        0.261278569114946    0.248221398654541    0.949518423387216  0.0000
  O1     O1        0.226155574137598    0.783134117505134    0.929272766174376  0.0000
