data_c00014.vasp
_audit_creation_method             Generated by GULP
_audit_author_name                 Salvador R. G. Balestra
_symmetry_space_group_name_H-M     'P 1             '
_symmetry_Int_Tables_number        1

loop_
_symmetry_equiv_pos_site_id
_symmetry_equiv_pos_as_xyz
_cell_length_a                       17.7814
_cell_length_b                        7.8072
_cell_length_c                       10.1732
_cell_angle_alpha                   87.7681
_cell_angle_beta                    90.5681
_cell_angle_gamma                   90.6151

loop_
_atom_site_label
_atom_site_type_symbol
_atom_site_fract_x
_atom_site_fract_y
_atom_site_fract_z
_atom_site_charge
  Ge     Ge        0.052090000000021    0.000000000000000    0.372269999999958  0.0000
  Ge     Ge        0.443011505161372    0.055868222068730    0.360530596459735  0.0000
  Ge     Ge        0.948185814282046    0.064372213541205    0.620727255420351  0.0000
  Ge     Ge        0.546336638930406    0.027518873373676    0.615682968868512  0.0000
  Ge     Ge        0.558611134040154    0.998238045320711    0.132555761943652  0.0000
  Ge     Ge        0.941651696750700    0.053323325246156    0.126454870233509  0.0000
  Ge     Ge        0.450718235669780    0.085004592669789    0.880968557250463  0.0000
  Ge     Ge        0.051045045933259    0.022111519573659    0.880940407920206  0.0000
  Ge     Ge        0.175336954750472    0.285656518408880    0.257450383538184  0.0000
  Ge     Ge        0.328508377067119    0.759709849788929    0.262963121048092  0.0000
  Ge     Ge        0.849306130050478    0.377725928022342    0.687509894885559  0.0000
  Ge     Ge        0.644884378252111    0.706867182306528    0.689128601421330  0.0000
  Ge     Ge        0.823440723531996    0.784279299904654    0.689304001118110  0.0000
  Ge     Ge        0.671685906368531    0.299930195578767    0.689983688496375  0.0000
  Ge     Ge        0.147188497360873    0.691758566587197    0.259038170499988  0.0000
  Ge     Ge        0.676058410660592    0.284221254850300    0.009613765766104  0.0000
  Ge     Ge        0.826006498295564    0.764634080631125    0.007952991916479  0.0000
  Ge     Ge        0.344558095299759    0.396824685146318    0.924455135353655  0.0000
  Ge     Ge        0.328915314580476    0.793356947877972    0.947948057806686  0.0000
  Ge     Ge        0.172283654030969    0.314686276265512    0.931705994612092  0.0000
  Ge     Ge        0.646987809343852    0.687736423998263    0.010449208032083  0.0000
  Si     Si        0.345921550825251    0.368575431877135    0.247676327741047  0.0000
  Si     Si        0.153519763267166    0.715339550518640    0.948271497063490  0.0000
  Si     Si        0.850571030500253    0.366149351252535    0.000305529286159  0.0000
  O1     O1        0.129423460387023    0.127820445573608    0.344752469257246  0.0000
  O1     O1        0.375554712323313    0.899669387984635    0.361428369381925  0.0000
  O1     O1        0.915079200934542    0.270599637077787    0.601773932623060  0.0000
  O1     O1        0.579523384457564    0.823250779632390    0.599660845641911  0.0000
  O1     O1        0.874462164122318    0.925291540189608    0.592640796200728  0.0000
  O1     O1        0.620349634584952    0.169173267028242    0.592366590020911  0.0000
  O1     O1        0.078881649813283    0.794440794783403    0.342030971499670  0.0000
  O3     O3        0.416132399961025    0.252188606208268    0.289267633465983  0.0000
  O1     O1        0.026407873539559    0.021350630201447    0.533746373087825  0.0000
  O1     O1        0.469246913310265    0.079203069823154    0.523105774377923  0.0000
  O1     O1        0.971538502348119    0.056857632812034    0.287508775759008  0.0000
  O1     O1        0.526757283343209    0.999935797393277    0.291168284257969  0.0000
  O1     O1        0.973022576284339    0.036002594696051    0.785066674668766  0.0000
  O1     O1        0.521958256021897    0.042266016387036    0.779596685629178  0.0000
  O1     O1        0.636826572603010    0.126831670622093    0.108292526211309  0.0000
  O1     O1        0.874003251110016    0.897678910221010    0.109639488252166  0.0000
  O1     O1        0.419269523998063    0.293943803122647    0.863912813534295  0.0000
  O3     O3        0.098274093990885    0.831092650216402    0.859100671382101  0.0000
  O1     O1        0.373837348932631    0.952771812414269    0.859489687554154  0.0000
  O1     O1        0.111103977104700    0.192469399351797    0.844961159856658  0.0000
  O1     O1        0.581299259325623    0.791569506870331    0.098223712628724  0.0000
  O3     O3        0.911513014963508    0.258258840687309    0.083344268864845  0.0000
  O1     O1        0.483331607614483    0.068780311644215    0.040281706069286  0.0000
  O1     O1        0.022032215444781    0.015312474629150    0.041743431422477  0.0000
  O1     O1        0.152280702390606    0.482219863939547    0.314418146586073  0.0000
  O3     O3        0.346940072882456    0.549459556084425    0.318279500086607  0.0000
  O1     O1        0.836628563041801    0.582471817296786    0.629231765636322  0.0000
  O1     O1        0.658438062952710    0.508360536964513    0.630791006567463  0.0000
  O3     O3        0.271333693764991    0.257623440398136    0.282149970998286  0.0000
  O1     O1        0.233491933915950    0.790998762631931    0.273775121167370  0.0000
  O1     O1        0.766382527453995    0.261446817489767    0.683674215766400  0.0000
  O1     O1        0.728782802470898    0.821958778516893    0.687611622199565  0.0000
  O1     O1        0.152554223928043    0.269074766352192    0.094256977154651  0.0000
  O1     O1        0.362118894727596    0.804330711373511    0.107634384534858  0.0000
  O3     O3        0.877666338215901    0.393060347479556    0.850830801718947  0.0000
  O1     O1        0.616962339089375    0.680597565863399    0.849982583190716  0.0000
  O1     O1        0.855632553571084    0.796170280580799    0.849561629603582  0.0000
  O1     O1        0.642293644244573    0.275633954730601    0.851176558017058  0.0000
  O3     O3        0.121278634348871    0.685786621721409    0.094637097883692  0.0000
  O3     O3        0.341356406933608    0.425094296401954    0.093911225550146  0.0000
  O1     O1        0.656702555497499    0.481034372684990    0.070781760193146  0.0000
  O3     O3        0.839081641421198    0.551094494074349    0.059857939430491  0.0000
  O1     O1        0.346798253207139    0.606419689566162    0.869957241470533  0.0000
  O3     O3        0.164810788066834    0.531949131933395    0.887560006905016  0.0000
  O3     O3        0.772525599890968    0.258560069052239    0.002795516904037  0.0000
  O1     O1        0.731203559485794    0.798759710261516    0.015659623354018  0.0000
  O1     O1        0.264440294902360    0.278708465423389    0.894104961866435  0.0000
  O3     O3        0.232698075585295    0.818169737342267    0.959123371966067  0.0000
