data_c00029.vasp
_audit_creation_method             Generated by GULP
_audit_author_name                 Salvador R. G. Balestra
_symmetry_space_group_name_H-M     'P 1             '
_symmetry_Int_Tables_number        1

loop_
_symmetry_equiv_pos_site_id
_symmetry_equiv_pos_as_xyz
_cell_length_a                       17.5592
_cell_length_b                        7.8785
_cell_length_c                       10.3159
_cell_angle_alpha                   88.9435
_cell_angle_beta                    90.8172
_cell_angle_gamma                   88.0826

loop_
_atom_site_label
_atom_site_type_symbol
_atom_site_fract_x
_atom_site_fract_y
_atom_site_fract_z
_atom_site_charge
  Ge     Ge        0.052090000000021    0.000000000000000    0.372269999999958  0.0000
  Ge     Ge        0.445330444973180    0.951082814441581    0.368176097636013  0.0000
  Ge     Ge        0.946144287623848    0.947637282751873    0.620753227206311  0.0000
  Ge     Ge        0.547654318556587    0.006782001952686    0.622116626936088  0.0000
  Ge     Ge        0.560758214662992    0.991096908367871    0.133443883015889  0.0000
  Ge     Ge        0.941471473500716    0.942006714949484    0.127598840297500  0.0000
  Ge     Ge        0.451054677189904    0.947683023232400    0.881886843666253  0.0000
  Ge     Ge        0.045599613777898    0.011611039979936    0.878813055769043  0.0000
  Ge     Ge        0.147415800459518    0.313329342133516    0.258187986270130  0.0000
  Ge     Ge        0.356146137409395    0.631758799296493    0.256344249615084  0.0000
  Ge     Ge        0.825254366070566    0.232937234430059    0.699282842539982  0.0000
  Ge     Ge        0.668967392815407    0.717779511119352    0.706465703179815  0.0000
  Ge     Ge        0.850592251985503    0.636381247235410    0.700711277986173  0.0000
  Ge     Ge        0.645531339598124    0.311307888626092    0.701588140294777  0.0000
  Ge     Ge        0.172756043045721    0.710150282783704    0.260249913407783  0.0000
  Ge     Ge        0.856958561512555    0.619670449091912    0.012893954187160  0.0000
  Ge     Ge        0.324967720199687    0.237250091524273    0.946662634764705  0.0000
  Ge     Ge        0.170769745908620    0.720637234153199    0.946044638004399  0.0000
  Ge     Ge        0.352320174178084    0.636461609776489    0.943380963752080  0.0000
  Ge     Ge        0.144796618995236    0.320975400182167    0.941510877575223  0.0000
  Ge     Ge        0.671352604866313    0.693032331131906    0.018581263056270  0.0000
  Si     Si        0.327188954232080    0.240669608503560    0.255156097370681  0.0000
  Si     Si        0.650474126913035    0.301792254262159    0.007443170629866  0.0000
  Si     Si        0.829518182908182    0.231066461615189    0.005488918780261  0.0000
  O1     O1        0.083187288517592    0.200889287624869    0.344328936067842  0.0000
  O1     O1        0.419902752883827    0.745430563502048    0.344369736968358  0.0000
  O1     O1        0.874189340520022    0.100354732206865    0.599332953397679  0.0000
  O1     O1        0.620170970996982    0.856348787912353    0.604062895546281  0.0000
  O1     O1        0.910278295254994    0.749401490586181    0.603538900935967  0.0000
  O1     O1        0.581338247645044    0.208286409201029    0.607377109136183  0.0000
  O1     O1        0.126911498987151    0.860083813262480    0.350640984912381  0.0000
  O3     O3        0.369485500243637    0.090990996136652    0.337187366121145  0.0000
  O1     O1        0.024567696543721    0.983722871259956    0.531965585349303  0.0000
  O1     O1        0.469380203350440    0.971769428719131    0.529899188422767  0.0000
  O1     O1        0.970282028942770    0.957912758880457    0.286472114538144  0.0000
  O1     O1        0.527428621733863    0.000006489776525    0.289137813120225  0.0000
  O1     O1        0.970621207702916    0.966634533406844    0.783124467802472  0.0000
  O1     O1        0.524505466853048    0.987049542330906    0.784269598579376  0.0000
  O3     O3        0.600519752961933    0.183782161423154    0.096289637076626  0.0000
  O1     O1        0.917795411928051    0.734289417021532    0.104765263320812  0.0000
  O1     O1        0.376650630651087    0.095273785705954    0.860265892986580  0.0000
  O1     O1        0.120500450203880    0.868213679072269    0.855067984797433  0.0000
  O1     O1        0.415027387978976    0.750405182216207    0.854810704438928  0.0000
  O1     O1        0.078930965672324    0.212725240197845    0.854883893070120  0.0000
  O1     O1        0.628767666276307    0.831113786214777    0.122669913896825  0.0000
  O3     O3        0.862495557996766    0.075344189359442    0.092218108180456  0.0000
  O1     O1        0.481679991313584    0.955282167773920    0.041146946033686  0.0000
  O1     O1        0.018164305822217    0.997667395913343    0.038860631460296  0.0000
  O1     O1        0.154695786155867    0.510974078937158    0.321804081097537  0.0000
  O3     O3        0.345628139706528    0.424394129718287    0.313151838088125  0.0000
  O1     O1        0.837299310871061    0.438477873499641    0.643546590069537  0.0000
  O1     O1        0.655748141514854    0.514912057692541    0.650337320534161  0.0000
  O3     O3        0.237063443135722    0.212421905064860    0.258056946160946  0.0000
  O1     O1        0.269039794464035    0.736959276861087    0.262722395150430  0.0000
  O1     O1        0.730184285459155    0.194897969902006    0.693945217734976  0.0000
  O1     O1        0.764930294610918    0.749911823714058    0.708461094318184  0.0000
  O1     O1        0.116776704452431    0.333479192545648    0.100409470214648  0.0000
  O1     O1        0.386903892747750    0.623284731092025    0.100627264622930  0.0000
  O3     O3        0.859525125927404    0.218003933594234    0.859153897233743  0.0000
  O1     O1        0.636945856464003    0.731753877435054    0.863789762805975  0.0000
  O1     O1        0.887672797344184    0.622138723578560    0.856183200647181  0.0000
  O3     O3        0.616171381813531    0.313865001363873    0.862409544021151  0.0000
  O1     O1        0.138946598660608    0.726309811024218    0.103417222207606  0.0000
  O3     O3        0.355667509430931    0.235255259536017    0.107690372000804  0.0000
  O3     O3        0.651240899435784    0.487247785672112    0.067623230044039  0.0000
  O3     O3        0.854710787968774    0.408563659439343    0.065323211753031  0.0000
  O1     O1        0.339342141238295    0.439318188538645    0.884548417581585  0.0000
  O1     O1        0.156247998413570    0.521598508035502    0.882957919497367  0.0000
  O2     O2        0.737523673616176    0.227687592721624    0.996401920389964  0.0000
  O1     O1        0.767771361807687    0.713713581973306    0.020919540424576  0.0000
  O1     O1        0.229666445815897    0.203043764496961    0.938904031759783  0.0000
  O1     O1        0.266674630338460    0.750866879185830    0.947765568716063  0.0000
