data_c00001.vasp
_audit_creation_method             Generated by GULP
_audit_author_name                 Salvador R. G. Balestra
_symmetry_space_group_name_H-M     'P 1             '
_symmetry_Int_Tables_number        1

loop_
_symmetry_equiv_pos_site_id
_symmetry_equiv_pos_as_xyz
_cell_length_a                       17.8352
_cell_length_b                        7.8385
_cell_length_c                       10.5490
_cell_angle_alpha                   90.8912
_cell_angle_beta                    89.9239
_cell_angle_gamma                   89.8415

loop_
_atom_site_label
_atom_site_type_symbol
_atom_site_fract_x
_atom_site_fract_y
_atom_site_fract_z
_atom_site_charge
  Ge     Ge        0.052090000000021    0.000000000000000    0.372269999999958  0.0000
  Ge     Ge        0.454245213415080    0.959866677114187    0.407065934590705  0.0000
  Ge     Ge        0.955238502440117    0.999249584666197    0.632411329675023  0.0000
  Ge     Ge        0.554727765447972    0.964352442056473    0.663258347713556  0.0000
  Ge     Ge        0.563293251085597    0.969438064514672    0.162757227869937  0.0000
  Ge     Ge        0.949346490047754    0.996590126838262    0.114591720778918  0.0000
  Ge     Ge        0.453586416329351    0.958504384797466    0.919489162427576  0.0000
  Ge     Ge        0.062651905796409    0.987908321426585    0.875887453755915  0.0000
  Ge     Ge        0.154704107829939    0.307082990953522    0.297743134139555  0.0000
  Ge     Ge        0.353425248629444    0.650530278825891    0.297695505401770  0.0000
  Ge     Ge        0.853914735752847    0.308874530256791    0.742905700981695  0.0000
  Ge     Ge        0.656102682656792    0.655029450326857    0.743119801440033  0.0000
  Ge     Ge        0.833586171398277    0.717770394732925    0.744335381853243  0.0000
  Ge     Ge        0.676638583430134    0.242587672214233    0.739399144342521  0.0000
  Ge     Ge        0.174925986019647    0.717674181657958    0.297131833631862  0.0000
  Ge     Ge        0.332092473028127    0.243030201490556    0.296666243630201  0.0000
  Ge     Ge        0.676176780458249    0.255907293302195    0.045814116366526  0.0000
  Ge     Ge        0.831961616432072    0.707420661433377    0.051046928917147  0.0000
  Ge     Ge        0.330512698541839    0.237885783613976    0.988341570281597  0.0000
  Ge     Ge        0.176198032432068    0.700132627528555    0.990949354375225  0.0000
  Ge     Ge        0.356086754577663    0.639921177881424    0.988150245583954  0.0000
  Si     Si        0.154964559645217    0.298145998379989    0.995709715196969  0.0000
  Si     Si        0.655146172387988    0.656826723549249    0.045288845488747  0.0000
  Si     Si        0.852533416066947    0.311878171421085    0.045805767901085  0.0000
  O1     O1        0.090261070262309    0.200785295240182    0.385960632803065  0.0000
  O1     O1        0.419024259093553    0.758787445160070    0.384874058762439  0.0000
  O1     O1        0.922046435523805    0.202011098332777    0.661234743541033  0.0000
  O1     O1        0.591915864069793    0.761790069992424    0.654187750299143  0.0000
  O1     O1        0.885431377343167    0.853598019723091    0.655645043924094  0.0000
  O1     O1        0.625354274903954    0.111024536975608    0.642891148686983  0.0000
  O1     O1        0.122690922081304    0.851695291439958    0.390815862787218  0.0000
  O1     O1        0.384561202346943    0.106529243688942    0.384085424486135  0.0000
  O1     O1        0.979984963311117    0.976564845630616    0.475204862352064  0.0000
  O1     O1        0.481670428269615    0.985898871251968    0.562533663199311  0.0000
  O1     O1        0.020432498430832    0.974608026749879    0.218820779948284  0.0000
  O1     O1        0.533561887356836    0.985252621951517    0.316942349705340  0.0000
  O1     O1        0.034902214243691    0.972613954778008    0.720405632340893  0.0000
  O1     O1        0.523207394694825    0.000298884166640    0.816076554757163  0.0000
  O1     O1        0.631903127599425    0.120842598490460    0.145288572356945  0.0000
  O1     O1        0.879803070178403    0.848467690702752    0.143700171482068  0.0000
  O1     O1        0.376438628346590    0.089817394464671    0.898951680980099  0.0000
  O1     O1        0.128854408389226    0.831094264275686    0.891705537128487  0.0000
  O1     O1        0.420511510166313    0.753547407261352    0.903933574056282  0.0000
  O3     O3        0.096985681380919    0.189712319067286    0.912207263051534  0.0000
  O3     O3        0.597748506130021    0.766347246964103    0.129569236317976  0.0000
  O3     O3        0.909769099813294    0.199278943587142    0.125748748128620  0.0000
  O1     O1        0.486492725315762    0.003292118546882    0.070065956894235  0.0000
  O1     O1        0.983890388710576    0.955929938812597    0.965031585872072  0.0000
  O1     O1        0.164366781773626    0.511704671298506    0.350320382123243  0.0000
  O1     O1        0.341819698357847    0.449293232132679    0.354123987752662  0.0000
  O1     O1        0.843823106963575    0.510948878383163    0.687815678113356  0.0000
  O1     O1        0.665977505441462    0.450419276905717    0.690362914363888  0.0000
  O1     O1        0.238211805562089    0.196727307795009    0.304191775545767  0.0000
  O1     O1        0.269254233412431    0.760194126770853    0.301252468719840  0.0000
  O1     O1        0.770818939433492    0.198339854495268    0.731904916688316  0.0000
  O1     O1        0.739544896490988    0.764235711583809    0.737169880522854  0.0000
  O3     O3        0.126033755710868    0.309425460959823    0.139929513979673  0.0000
  O1     O1        0.384724336972176    0.638498519744053    0.143832452333190  0.0000
  O3     O3        0.880360839713634    0.322933330201408    0.900979796733432  0.0000
  O3     O3        0.626588117616105    0.653795029243514    0.900585937582983  0.0000
  O1     O1        0.863317477204814    0.729252366780407    0.898483851661864  0.0000
  O1     O1        0.645587948214613    0.225216321025468    0.893660183543544  0.0000
  O1     O1        0.144052521102834    0.730480234210130    0.142731144860103  0.0000
  O1     O1        0.361876551676861    0.234188960244259    0.142355516907595  0.0000
  O3     O3        0.659872253423450    0.465184766045662    0.095408339188757  0.0000
  O3     O3        0.846591193088533    0.501210976677880    0.104372754787588  0.0000
  O1     O1        0.348325607919490    0.437316623929392    0.928743765987850  0.0000
  O3     O3        0.164365016107608    0.487782500569869    0.943326715180022  0.0000
  O3     O3        0.771729287054328    0.219987510229884    0.045774220301040  0.0000
  O3     O3        0.736515449580741    0.745755234606660    0.051175963859655  0.0000
  O3     O3        0.234949029352952    0.201352544674563    0.991692531430180  0.0000
  O1     O1        0.270195146096118    0.741348114834417    0.986278844769041  0.0000
