data_c00072.vasp
_audit_creation_method             Generated by GULP
_audit_author_name                 Salvador R. G. Balestra
_symmetry_space_group_name_H-M     'P 1             '
_symmetry_Int_Tables_number        1

loop_
_symmetry_equiv_pos_site_id
_symmetry_equiv_pos_as_xyz
_cell_length_a                       17.5765
_cell_length_b                        7.8398
_cell_length_c                       10.2128
_cell_angle_alpha                   87.9594
_cell_angle_beta                    88.5811
_cell_angle_gamma                   92.3756

loop_
_atom_site_label
_atom_site_type_symbol
_atom_site_fract_x
_atom_site_fract_y
_atom_site_fract_z
_atom_site_charge
  Ge     Ge        0.052090000000021    0.000000000000000    0.372269999999958  0.0000
  Ge     Ge        0.450396323316278    0.037360418607430    0.383533262638128  0.0000
  Ge     Ge        0.970590458763434    0.091883523101162    0.639485439649310  0.0000
  Ge     Ge        0.561587216656191    0.013573907982873    0.628301862465622  0.0000
  Ge     Ge        0.558224246913689    0.987128119765422    0.133139546739105  0.0000
  Ge     Ge        0.936566154041240    0.059479128450864    0.145533131574035  0.0000
  Ge     Ge        0.457614360225820    0.084016720278487    0.884488831148409  0.0000
  Ge     Ge        0.178182264245099    0.296570981463089    0.262304777099490  0.0000
  Ge     Ge        0.330128765393058    0.753224474326981    0.279025126513488  0.0000
  Ge     Ge        0.864634599235018    0.389098673203350    0.709559864091194  0.0000
  Ge     Ge        0.662366774751781    0.701773275913687    0.694049158004148  0.0000
  Ge     Ge        0.842082474046968    0.795127277411214    0.710568124736953  0.0000
  Ge     Ge        0.685138012996789    0.299753728961481    0.698929295443341  0.0000
  Ge     Ge        0.142721018766635    0.682503228132248    0.281063159486504  0.0000
  Ge     Ge        0.354904295825569    0.345731700280401    0.262503204672572  0.0000
  Ge     Ge        0.678176221616492    0.279648661344766    0.017511814534617  0.0000
  Ge     Ge        0.826885134567015    0.768051587708512    0.025810490782751  0.0000
  Ge     Ge        0.353505441999340    0.386239361322262    0.932690474887344  0.0000
  Ge     Ge        0.147222368354346    0.715345167715997    0.969350363871410  0.0000
  Ge     Ge        0.335186670510987    0.787486306516138    0.965273895049739  0.0000
  Ge     Ge        0.644960904237277    0.674770620875992    0.012473882254801  0.0000
  Si     Si        0.057114881395957    0.034649839561816    0.910126031430292  0.0000
  Si     Si        0.179537010724130    0.342369904555706    0.946992408041055  0.0000
  Si     Si        0.856020495878960    0.375505081897968    0.020377606633247  0.0000
  O1     O1        0.120206849437728    0.120206597442150    0.280438952806638  0.0000
  O1     O1        0.373792507170727    0.895877026266678    0.379595893279772  0.0000
  O1     O1        0.932708428594510    0.289262652858698    0.622370321760424  0.0000
  O1     O1        0.598982292135704    0.817319966924782    0.606370001933159  0.0000
  O1     O1        0.900044831567956    0.936232835845974    0.619543028488191  0.0000
  O1     O1        0.634345878852306    0.166330524801366    0.601567783115093  0.0000
  O1     O1        0.080441780526397    0.794369877808923    0.375489144399680  0.0000
  O1     O1        0.426278215692818    0.238923023746083    0.334797347364115  0.0000
  O1     O1        0.044026325938769    0.067163982505086    0.531032996768038  0.0000
  O1     O1        0.482009887121507    0.046435275840583    0.541601461312013  0.0000
  O1     O1        0.965776543935966    0.038700007126701    0.303955691085344  0.0000
  O1     O1        0.528110678765228    0.975324446564389    0.294078777591943  0.0000
  O3     O3        0.998940478590369    0.084208234034585    0.800866570048330  0.0000
  O1     O1        0.532717099869235    0.027561490971977    0.790872804411227  0.0000
  O1     O1        0.640777283582676    0.113105533951533    0.112568738549874  0.0000
  O1     O1        0.863537497155254    0.911756964417292    0.131265560827457  0.0000
  O1     O1        0.422621531020940    0.282474847332416    0.849853719804048  0.0000
  O3     O3        0.095564022366988    0.858346437712691    0.877172299941146  0.0000
  O1     O1        0.378301356889657    0.948474678574597    0.872337733787242  0.0000
  O2     O2        0.123465844644771    0.182973194378797    0.920924808225794  0.0000
  O1     O1        0.575066701330935    0.781538472291169    0.089304022311486  0.0000
  O3     O3        0.912427149621283    0.267379718058727    0.108923463186404  0.0000
  O1     O1        0.488623790824265    0.077101462756003    0.043370223844514  0.0000
  O3     O3        0.014856124880352    0.010650125374546    0.050410849238285  0.0000
  O1     O1        0.143712124282662    0.472627159996981    0.337069814206502  0.0000
  O1     O1        0.351973645095749    0.547796717869682    0.320962912764445  0.0000
  O1     O1        0.854684042163306    0.593331702720080    0.652974444419371  0.0000
  O1     O1        0.677540590291376    0.505530677497933    0.634357673989191  0.0000
  O1     O1        0.267723082216020    0.247131373446307    0.307323445118166  0.0000
  O1     O1        0.233551207398567    0.772725805109186    0.287517184563069  0.0000
  O1     O1        0.781172758369918    0.266810542148001    0.700756046086105  0.0000
  O1     O1        0.746047732947241    0.825455028864402    0.700220557244572  0.0000
  O3     O3        0.191190856361645    0.379552471794077    0.101105098736797  0.0000
  O1     O1        0.367107410156638    0.798378487997732    0.123415760539265  0.0000
  O3     O3        0.889125730086844    0.403605150229803    0.873115280455702  0.0000
  O1     O1        0.625520732719085    0.659925886248435    0.849953667277202  0.0000
  O1     O1        0.866657801352245    0.809684088498654    0.872301203231925  0.0000
  O1     O1        0.649467490475917    0.272499465320379    0.857813967368165  0.0000
  O1     O1        0.108564181904505    0.699241925291769    0.124751016750541  0.0000
  O1     O1        0.368458144666503    0.345096521156488    0.096212124731782  0.0000
  O1     O1        0.651737350586823    0.471489744998241    0.078217794260906  0.0000
  O3     O3        0.843900841085068    0.559546321142876    0.079551732447386  0.0000
  O1     O1        0.360139471032551    0.599503839603920    0.896731424884517  0.0000
  O3     O3        0.147038549015446    0.520436132941443    0.892218776333510  0.0000
  O3     O3        0.776243838161698    0.268012273924168    0.015290344493795  0.0000
  O1     O1        0.730776877954309    0.787617989432936    0.021851551598477  0.0000
  O3     O3        0.262726899092435    0.310837710010679    0.888508237631816  0.0000
  O1     O1        0.238605929335444    0.798732168724856    0.977003951957307  0.0000
