data_c00037.vasp
_audit_creation_method             Generated by GULP
_audit_author_name                 Salvador R. G. Balestra
_symmetry_space_group_name_H-M     'P 1             '
_symmetry_Int_Tables_number        1

loop_
_symmetry_equiv_pos_site_id
_symmetry_equiv_pos_as_xyz
_cell_length_a                       17.6751
_cell_length_b                        7.8612
_cell_length_c                       10.2499
_cell_angle_alpha                   90.3184
_cell_angle_beta                    89.9538
_cell_angle_gamma                   88.3410

loop_
_atom_site_label
_atom_site_type_symbol
_atom_site_fract_x
_atom_site_fract_y
_atom_site_fract_z
_atom_site_charge
  Ge     Ge        0.052090000000021    0.000000000000000    0.372269999999958  0.0000
  Ge     Ge        0.439245808832379    0.962579346781470    0.416703065291541  0.0000
  Ge     Ge        0.945814227391127    0.957990312048754    0.626275155584512  0.0000
  Ge     Ge        0.545699907732360    0.015514987904365    0.665163568348488  0.0000
  Ge     Ge        0.549879020559403    0.013488217419368    0.173364401487079  0.0000
  Ge     Ge        0.944599817122832    0.951920844258004    0.122603981672729  0.0000
  Ge     Ge        0.445738296754721    0.944217128832800    0.921793718129552  0.0000
  Ge     Ge        0.051940548068549    0.003430897885609    0.875202162695851  0.0000
  Ge     Ge        0.147288035073904    0.317275115413279    0.304860520921795  0.0000
  Ge     Ge        0.347928660572320    0.643593051390747    0.298476697776035  0.0000
  Ge     Ge        0.823225866558349    0.246304024219582    0.737283168588902  0.0000
  Ge     Ge        0.669425685155403    0.730293840995708    0.738420977711930  0.0000
  Ge     Ge        0.849960059015731    0.647649352071719    0.741792599538909  0.0000
  Ge     Ge        0.643136728091520    0.328600762015505    0.734529754995446  0.0000
  Ge     Ge        0.640809142381335    0.324704903700593    0.051836227763265  0.0000
  Ge     Ge        0.848914792124708    0.637041880043709    0.058681529998003  0.0000
  Ge     Ge        0.321766480515601    0.233723588013824    0.993424044202341  0.0000
  Ge     Ge        0.167785430690602    0.703903973534222    0.991854058513246  0.0000
  Ge     Ge        0.348516126476148    0.632832901919600    0.982116219456189  0.0000
  Ge     Ge        0.669514439902869    0.727092358672701    0.054988862498557  0.0000
  Ge     Ge        0.820904641820571    0.238492532185467    0.054120456905655  0.0000
  Si     Si        0.168506057991092    0.710340450919904    0.300725017881311  0.0000
  Si     Si        0.325575643038164    0.250977612150613    0.302132272506114  0.0000
  Si     Si        0.144826464062043    0.305788447594119    0.997384178352749  0.0000
  O1     O1        0.089363094862314    0.197906012933311    0.397876873557118  0.0000
  O1     O1        0.407741477500901    0.760677708936866    0.390768520599706  0.0000
  O1     O1        0.871029236029526    0.099751531513893    0.642411354125533  0.0000
  O1     O1        0.619218858593700    0.869682536340276    0.642062154032574  0.0000
  O1     O1        0.917313691872784    0.756051321292126    0.659193566805500  0.0000
  O1     O1        0.579463902549695    0.215900463101595    0.644472391851562  0.0000
  O3     O3        0.124761173357253    0.848130212743150    0.390039414648148  0.0000
  O3     O3        0.366836174813481    0.109101656607313    0.389263353178479  0.0000
  O1     O1        0.975442175089380    0.961992475272057    0.465524631345198  0.0000
  O1     O1        0.466308007677120    0.975993257763099    0.577760910125201  0.0000
  O1     O1        0.021816598634715    0.996161263203763    0.212533033150870  0.0000
  O1     O1        0.520257483233522    0.005918467731948    0.333158277693673  0.0000
  O1     O1        0.024065752873903    0.011523879458594    0.714837808262333  0.0000
  O1     O1        0.519848933625734    0.997062652063339    0.827957865027153  0.0000
  O1     O1        0.574494732336122    0.218238888876220    0.138177492376205  0.0000
  O1     O1        0.912300183391805    0.750080853470761    0.147776277241811  0.0000
  O1     O1        0.368518173504248    0.083050207008797    0.904513322094246  0.0000
  O1     O1        0.118571989016914    0.842165291861711    0.895033816579283  0.0000
  O1     O1        0.412303737615237    0.743858867847311    0.892772166143843  0.0000
  O3     O3        0.085785166961564    0.202562436661054    0.912773926139458  0.0000
  O1     O1        0.626508116563865    0.876967994199115    0.152724681852897  0.0000
  O1     O1        0.869949268773980    0.094427805773355    0.147134068637762  0.0000
  O1     O1        0.474440818408254    0.951670079007875    0.082323152248925  0.0000
  O1     O1        0.971715688352434    0.963027151040348    0.960865884837675  0.0000
  O3     O3        0.151467821045172    0.524312597889957    0.358362003806583  0.0000
  O3     O3        0.342769055989153    0.438056115321154    0.357766953892347  0.0000
  O1     O1        0.837282677240438    0.448036223758645    0.678148113069037  0.0000
  O1     O1        0.655577607737132    0.528208249093882    0.676453811610459  0.0000
  O3     O3        0.236378169443662    0.221716519922011    0.304871362750247  0.0000
  O3     O3        0.257874469477273    0.737718970652334    0.300104207332694  0.0000
  O1     O1        0.727648361884948    0.213279369829386    0.735576185939721  0.0000
  O1     O1        0.765052426442534    0.762694032595331    0.737624550251169  0.0000
  O3     O3        0.115078302383871    0.318214483076717    0.145407139148769  0.0000
  O1     O1        0.379548408896927    0.634107844233177    0.141892194776568  0.0000
  O1     O1        0.853885961154828    0.229010639921192    0.895893498095565  0.0000
  O1     O1        0.636804974197487    0.743758984490584    0.897089190753453  0.0000
  O1     O1        0.879032971083209    0.617801998234215    0.899495855915926  0.0000
  O1     O1        0.611681510048184    0.346143646463856    0.893109252598144  0.0000
  O3     O3        0.137826119526388    0.724948736649840    0.152443613490665  0.0000
  O3     O3        0.354759908291326    0.234908411158109    0.153368839595562  0.0000
  O1     O1        0.652904174142574    0.525432566705653    0.112922835339586  0.0000
  O1     O1        0.835530871829645    0.439033266662029    0.118843152656128  0.0000
  O1     O1        0.340523147358377    0.429536626448964    0.927554825854546  0.0000
  O3     O3        0.154504176252958    0.494478907063647    0.942207313575923  0.0000
  O1     O1        0.725292730074519    0.208638322034624    0.054734367446091  0.0000
  O1     O1        0.765060963972847    0.754827891128889    0.053742345249902  0.0000
  O3     O3        0.225518505945567    0.203660242363276    0.993843016357834  0.0000
  O1     O1        0.262045464374011    0.740033299419232    0.979826587020837  0.0000
