data_c00007.vasp
_audit_creation_method             Generated by GULP
_audit_author_name                 Salvador R. G. Balestra
_symmetry_space_group_name_H-M     'P 1             '
_symmetry_Int_Tables_number        1

loop_
_symmetry_equiv_pos_site_id
_symmetry_equiv_pos_as_xyz
_cell_length_a                       17.6347
_cell_length_b                        7.8584
_cell_length_c                       10.6687
_cell_angle_alpha                   89.3508
_cell_angle_beta                    89.8919
_cell_angle_gamma                   89.9550

loop_
_atom_site_label
_atom_site_type_symbol
_atom_site_fract_x
_atom_site_fract_y
_atom_site_fract_z
_atom_site_charge
  Ge     Ge        0.052090000000021    0.000000000000000    0.372269999999958  0.0000
  Ge     Ge        0.451939514939828    0.019214010731045    0.373437623544449  0.0000
  Ge     Ge        0.954963401534568    0.989433934572560    0.632387771367364  0.0000
  Ge     Ge        0.551208259743001    0.022961302696627    0.631023615216061  0.0000
  Ge     Ge        0.550772364622118    0.017934277694592    0.115519084494215  0.0000
  Ge     Ge        0.953646233623039    0.987443314367902    0.115016648108061  0.0000
  Ge     Ge        0.440239321916419    0.021285476684205    0.870397896894607  0.0000
  Ge     Ge        0.066177293022546    0.010585334211263    0.872167647020301  0.0000
  Ge     Ge        0.171829809983849    0.277357380958326    0.280404385669218  0.0000
  Ge     Ge        0.332351004130366    0.743749562625399    0.287834892911231  0.0000
  Ge     Ge        0.830432471830648    0.270643948807600    0.739489838960875  0.0000
  Ge     Ge        0.675193201213530    0.740619148675891    0.738403386373465  0.0000
  Ge     Ge        0.856349855997997    0.675016135463450    0.738490277864166  0.0000
  Ge     Ge        0.649250685141582    0.335656891399089    0.738722740334294  0.0000
  Ge     Ge        0.151908310562644    0.694813563126788    0.283138491589233  0.0000
  Ge     Ge        0.352932109312314    0.330334835121201    0.282508739876320  0.0000
  Ge     Ge        0.648338391402377    0.337879622315508    0.044174087228572  0.0000
  Ge     Ge        0.856353463212469    0.669327682831243    0.044351591376490  0.0000
  Ge     Ge        0.352345517478925    0.346026988197772    0.979820942420459  0.0000
  Ge     Ge        0.675745684557403    0.741247088204698    0.043071619666883  0.0000
  Ge     Ge        0.828851276701503    0.266357836794088    0.044080119815570  0.0000
  Si     Si        0.154388776013853    0.695779984505341    0.992637672986906  0.0000
  Si     Si        0.334849475332163    0.738559904565212    0.994167617369969  0.0000
  Si     Si        0.168678618948077    0.303508062757358    0.985904935558491  0.0000
  O1     O1        0.122938702775722    0.150302831776606    0.382306506507706  0.0000
  O1     O1        0.381041066176993    0.869558889225995    0.388801806404529  0.0000
  O1     O1        0.880974801401759    0.126619578480551    0.655178423043808  0.0000
  O1     O1        0.625259918402012    0.884996662826838    0.651061001550073  0.0000
  O1     O1        0.923388852395777    0.785214463055024    0.654505180689167  0.0000
  O1     O1        0.582082934606700    0.226451056735313    0.656410199195967  0.0000
  O1     O1        0.089583463625829    0.798200688810968    0.378727329610447  0.0000
  O1     O1        0.414267809799162    0.220400865983970    0.377813271757808  0.0000
  O1     O1        0.981538430981890    0.020546009561793    0.478243688107720  0.0000
  O1     O1        0.523769381213453    0.999969283859429    0.477543820751036  0.0000
  O1     O1        0.019233975451947    0.038246130430882    0.222403107714846  0.0000
  O1     O1        0.484029009532887    0.975943629118472    0.224382053951109  0.0000
  O1     O1        0.034838572296216    0.023922574550350    0.720677757525679  0.0000
  O1     O1        0.472005126299069    0.983119166765982    0.721678106118773  0.0000
  O1     O1        0.583632384250654    0.223293659577759    0.129548282860245  0.0000
  O1     O1        0.920731209508030    0.782097984774248    0.130004794793672  0.0000
  O1     O1        0.405804134052072    0.225946573562453    0.881555783084089  0.0000
  O3     O3        0.115009682234129    0.819191388900348    0.893832794203291  0.0000
  O3     O3        0.363699465451216    0.888816111672738    0.905550584826354  0.0000
  O3     O3        0.128007883884343    0.179311615698460    0.890455832542546  0.0000
  O1     O1        0.627176242622615    0.882208840536616    0.131999418701296  0.0000
  O1     O1        0.876441671330354    0.120988221685982    0.131864979226686  0.0000
  O1     O1        0.515642834197883    0.986269099673905    0.966759409426467  0.0000
  O1     O1        0.988001587052044    0.019698929339841    0.964747083675592  0.0000
  O1     O1        0.159191909643952    0.486294921517229    0.323679610016851  0.0000
  O1     O1        0.343917765458586    0.533899382032797    0.332472400509469  0.0000
  O1     O1        0.844535831277179    0.474155628229287    0.681304803646286  0.0000
  O1     O1        0.661041038904330    0.538261207433635    0.681479524477107  0.0000
  O1     O1        0.266200780283846    0.229870094546485    0.286410880235132  0.0000
  O1     O1        0.238203952950112    0.794102887965300    0.295691664133699  0.0000
  O1     O1        0.734785345418908    0.229151736134698    0.734070792091436  0.0000
  O1     O1        0.770766551206034    0.781581991763703    0.733608181132543  0.0000
  O3     O3        0.141423034404409    0.257668969767344    0.125892773077598  0.0000
  O3     O3        0.366014439287938    0.761761062881119    0.134206755973497  0.0000
  O1     O1        0.861019093938469    0.263779213499336    0.891612497947609  0.0000
  O1     O1        0.644132704436914    0.748613344535579    0.890465101464617  0.0000
  O1     O1        0.886750869404079    0.662603587039566    0.891106240917768  0.0000
  O1     O1        0.618027234374485    0.346526773052931    0.890901333196962  0.0000
  O3     O3        0.118195952535875    0.722289316794428    0.129372205809780  0.0000
  O1     O1        0.385399978525750    0.318199630285175    0.129825731827138  0.0000
  O1     O1        0.660199153759816    0.537292218919054    0.101208523776161  0.0000
  O1     O1        0.843966229316043    0.468623566037584    0.102355125377695  0.0000
  O3     O3        0.361764778895977    0.558886789121388    0.938489912368652  0.0000
  O2     O2        0.144851560440160    0.499008885330423    0.952387006754985  0.0000
  O1     O1        0.733343300583940    0.228954121151048    0.043872123892389  0.0000
  O1     O1        0.771200708539907    0.778449892543582    0.043865134059586  0.0000
  O3     O3        0.258673554141108    0.283619113517823    0.976140138592382  0.0000
  O2     O2        0.243645903410436    0.734787986909842    0.008402858751564  0.0000
