data_c00009.vasp
_audit_creation_method             Generated by GULP
_audit_author_name                 Salvador R. G. Balestra
_symmetry_space_group_name_H-M     'P 1             '
_symmetry_Int_Tables_number        1

loop_
_symmetry_equiv_pos_site_id
_symmetry_equiv_pos_as_xyz
_cell_length_a                       17.6272
_cell_length_b                        7.8340
_cell_length_c                       10.2587
_cell_angle_alpha                   88.5050
_cell_angle_beta                    90.0371
_cell_angle_gamma                   91.3392

loop_
_atom_site_label
_atom_site_type_symbol
_atom_site_fract_x
_atom_site_fract_y
_atom_site_fract_z
_atom_site_charge
  Ge     Ge        0.052090000000021    0.000000000000000    0.372269999999958  0.0000
  Ge     Ge        0.442752661251995    0.052688030848775    0.369870182747621  0.0000
  Ge     Ge        0.951877551834780    0.076984616748142    0.623499662789675  0.0000
  Ge     Ge        0.550125412801746    0.020463653258824    0.619483850860050  0.0000
  Ge     Ge        0.556129633324022    0.002069727053865    0.131907999965024  0.0000
  Ge     Ge        0.941539740684712    0.060424477549106    0.129750332646168  0.0000
  Ge     Ge        0.451590417315927    0.078202923147392    0.879538719908590  0.0000
  Ge     Ge        0.052205020091869    0.023720216904046    0.883957840160356  0.0000
  Ge     Ge        0.174802160305845    0.287899698649969    0.253222630503019  0.0000
  Ge     Ge        0.326720133463449    0.757876788244183    0.264864880075628  0.0000
  Ge     Ge        0.852607316047630    0.384373253167539    0.695068654678049  0.0000
  Ge     Ge        0.648105773063325    0.704837620065702    0.694262830536589  0.0000
  Ge     Ge        0.827994007210313    0.789961475055425    0.698718562680198  0.0000
  Ge     Ge        0.673769250106111    0.300238725111210    0.695231845258943  0.0000
  Ge     Ge        0.142808375891118    0.685888872856660    0.264495891372347  0.0000
  Ge     Ge        0.675123360653177    0.288836101498696    0.011886494954351  0.0000
  Ge     Ge        0.826713195472211    0.768392555303505    0.013082085834430  0.0000
  Ge     Ge        0.348144204452781    0.386667571355317    0.935510205754951  0.0000
  Ge     Ge        0.147503927910217    0.703439842178023    0.950665244369429  0.0000
  Ge     Ge        0.328796141227244    0.786459486430342    0.952591004862700  0.0000
  Ge     Ge        0.644922616534312    0.689389603967868    0.011299893414977  0.0000
  Si     Si        0.350710592014186    0.364925565237042    0.249807617687737  0.0000
  Si     Si        0.173334674564190    0.310816971797323    0.940421192597831  0.0000
  Si     Si        0.852233667717435    0.372036531299970    0.004823185308731  0.0000
  O1     O1        0.131871988151324    0.118896038078798    0.330904941204487  0.0000
  O1     O1        0.373216937302623    0.897881025496839    0.364570606147268  0.0000
  O1     O1        0.917548501615383    0.279696836925398    0.604558530267842  0.0000
  O1     O1        0.584665166903134    0.819099902169553    0.602154560272802  0.0000
  O1     O1        0.879059591102886    0.930027879629596    0.601187099272565  0.0000
  O1     O1        0.623318891291410    0.167620041603802    0.596348145010253  0.0000
  O1     O1        0.076710893112792    0.791544181849474    0.353188243945334  0.0000
  O3     O3        0.414762428297304    0.253750025081846    0.319174412795107  0.0000
  O1     O1        0.029568679945580    0.035860567854555    0.532720015135032  0.0000
  O1     O1        0.471385692948796    0.063363261064105    0.530562099766082  0.0000
  O1     O1        0.971967307293121    0.059895378249867    0.289234811767161  0.0000
  O1     O1        0.524743620083623    0.002221085332621    0.290133763180939  0.0000
  O1     O1        0.977175923638857    0.062049384294286    0.786373301078510  0.0000
  O1     O1        0.525712220523337    0.036563938049463    0.782639382459823  0.0000
  O1     O1        0.635853841352002    0.130760722470869    0.108899628825617  0.0000
  O1     O1        0.871727634824964    0.906257793168396    0.115415441995654  0.0000
  O1     O1        0.414764546321593    0.279082994209065    0.853752163899039  0.0000
  O1     O1        0.089623800856745    0.826515314252716    0.855789277677743  0.0000
  O1     O1        0.377091148508349    0.935183021729072    0.859845860240829  0.0000
  O3     O3        0.123299720216316    0.179561009586867    0.859084169877871  0.0000
  O1     O1        0.578536848508307    0.795899841022937    0.096297778416774  0.0000
  O3     O3        0.912032747086112    0.264111059311516    0.088047817884425  0.0000
  O1     O1        0.482234487811533    0.073483203318156    0.038879205376783  0.0000
  O1     O1        0.021336129372353    0.016604929023367    0.043045674481253  0.0000
  O1     O1        0.150749895021986    0.477734020439534    0.320154083892985  0.0000
  O3     O3        0.342446012119140    0.547427894345981    0.315796980983950  0.0000
  O1     O1        0.840793983746159    0.587881615202951    0.639136451338959  0.0000
  O1     O1        0.662319828179579    0.506986087058852    0.635821135499118  0.0000
  O3     O3        0.271567824083322    0.258098552313471    0.261367456475805  0.0000
  O1     O1        0.230877783957554    0.785806490031598    0.271032680804640  0.0000
  O1     O1        0.769355333159295    0.264658960545432    0.691712942288983  0.0000
  O1     O1        0.732319688968380    0.823267754683425    0.698019841182549  0.0000
  O3     O3        0.147625444157342    0.298157319724940    0.091178497781763  0.0000
  O1     O1        0.362114472793429    0.796998199306538    0.110875188050973  0.0000
  O3     O3        0.881096758268465    0.398603470498603    0.857065843098748  0.0000
  O1     O1        0.616090961462743    0.678105584012553    0.851872213464004  0.0000
  O1     O1        0.860135159469320    0.802781383058731    0.857419141148353  0.0000
  O1     O1        0.642231097505034    0.278317157820481    0.854346933859929  0.0000
  O1     O1        0.111870418991163    0.684420076156021    0.105920335211575  0.0000
  O3     O3        0.370706738902924    0.403251112855616    0.099498131085361  0.0000
  O1     O1        0.654152848197610    0.484962576700079    0.072329208200826  0.0000
  O3     O3        0.841465867732877    0.557538507503222    0.064225895237649  0.0000
  O1     O1        0.343145082868015    0.592172869592464    0.881008995002392  0.0000
  O3     O3        0.160509946048836    0.504414208263781    0.887138187230162  0.0000
  O3     O3        0.772581527669708    0.266637571213890    0.005653484614346  0.0000
  O1     O1        0.730966326346663    0.798287534458817    0.015930401389723  0.0000
  O3     O3        0.262105947575112    0.273851494768690    0.927172608431603  0.0000
  O1     O1        0.233154585962765    0.812653703245530    0.961573006186252  0.0000
