data_c00047.vasp
_audit_creation_method             Generated by GULP
_audit_author_name                 Salvador R. G. Balestra
_symmetry_space_group_name_H-M     'P 1             '
_symmetry_Int_Tables_number        1

loop_
_symmetry_equiv_pos_site_id
_symmetry_equiv_pos_as_xyz
_cell_length_a                       17.6451
_cell_length_b                        7.8388
_cell_length_c                       10.2270
_cell_angle_alpha                   91.4333
_cell_angle_beta                    90.2734
_cell_angle_gamma                   91.4306

loop_
_atom_site_label
_atom_site_type_symbol
_atom_site_fract_x
_atom_site_fract_y
_atom_site_fract_z
_atom_site_charge
  Ge     Ge        0.052090000000021    0.000000000000000    0.372269999999958  0.0000
  Ge     Ge        0.446472007505751    0.063151469827657    0.383299208519291  0.0000
  Ge     Ge        0.942543439559618    0.038153359602326    0.621729646027693  0.0000
  Ge     Ge        0.550977961934524    0.998894318837742    0.633201664960477  0.0000
  Ge     Ge        0.545824179918737    0.001361070914526    0.124453954231122  0.0000
  Ge     Ge        0.949001539536036    0.064306375547465    0.120152455240981  0.0000
  Ge     Ge        0.438690694237899    0.050725281806534    0.873844383826841  0.0000
  Ge     Ge        0.051760931197728    0.990567303847353    0.869246757439420  0.0000
  Ge     Ge        0.169627012971943    0.293924542294025    0.305068033678331  0.0000
  Ge     Ge        0.325266824593907    0.774979370543859    0.303203654896879  0.0000
  Ge     Ge        0.848299522826541    0.356641317846405    0.740651430941511  0.0000
  Ge     Ge        0.639620865115360    0.677898347615761    0.744166318980235  0.0000
  Ge     Ge        0.821924922100243    0.755422845197059    0.735034179201273  0.0000
  Ge     Ge        0.349299681102797    0.372838848670719    0.309748800057503  0.0000
  Ge     Ge        0.671536251382038    0.287079444348755    0.056613363416530  0.0000
  Ge     Ge        0.824132875010921    0.774633513135344    0.051323643245805  0.0000
  Ge     Ge        0.142731897982600    0.680041206253603    0.990543548663611  0.0000
  Ge     Ge        0.323280060682431    0.757966021711528    0.987177834086526  0.0000
  Ge     Ge        0.170806685542037    0.278821297410490    0.988641814725101  0.0000
  Ge     Ge        0.644573356906366    0.689140479733730    0.059381208142337  0.0000
  Ge     Ge        0.849516706927842    0.372870697531268    0.060566274259595  0.0000
  Si     Si        0.669758290837576    0.284692628153978    0.745229936655252  0.0000
  Si     Si        0.148960069225989    0.689847540260222    0.301760321570303  0.0000
  Si     Si        0.348002527328898    0.360583959744452    0.998278545574659  0.0000
  O1     O1        0.118524216257927    0.161092320810910    0.403397747956282  0.0000
  O1     O1        0.371334774499268    0.920863877806349    0.403018616587796  0.0000
  O1     O1        0.913475394281405    0.241689485845742    0.655792219666562  0.0000
  O1     O1        0.575658481402191    0.791389910525830    0.656227321754432  0.0000
  O1     O1        0.866423401131595    0.902384876867975    0.639546182427489  0.0000
  O3     O3        0.627723330220238    0.134938773572802    0.662364650383977  0.0000
  O3     O3        0.091401275612612    0.800548326023795    0.387823670787987  0.0000
  O1     O1        0.413785278425342    0.266778666917930    0.400844165632556  0.0000
  O1     O1        0.972070596050305    0.024598083715388    0.461250031439457  0.0000
  O1     O1        0.524967336152137    0.020168522139863    0.471345721956020  0.0000
  O1     O1        0.025986059393816    0.017277042036795    0.210208078701890  0.0000
  O1     O1        0.470423578744531    0.042443523442134    0.219611133097499  0.0000
  O1     O1        0.021981259438185    0.986824833521070    0.709089410813759  0.0000
  O1     O1        0.470135852848941    0.054367662149841    0.715007230049930  0.0000
  O1     O1        0.618842264891983    0.150434285677285    0.146561140761790  0.0000
  O1     O1        0.875236894554284    0.920390497710509    0.143220278433800  0.0000
  O3     O3        0.407982550641456    0.253014768284713    0.916237293961824  0.0000
  O1     O1        0.073684147587595    0.785925482784033    0.911719096783546  0.0000
  O1     O1        0.368964368156022    0.895251229258738    0.885582987108496  0.0000
  O1     O1        0.130746315233866    0.122070142046381    0.890664165435714  0.0000
  O1     O1        0.582404856043720    0.803613667393228    0.151833875000779  0.0000
  O1     O1        0.915247157831833    0.266190750863232    0.148482110009081  0.0000
  O1     O1        0.517060191141795    0.003496737064791    0.963216740940865  0.0000
  O1     O1        0.976564237604877    0.061047267958264    0.958131180939710  0.0000
  O3     O3        0.160362050262550    0.505255561389880    0.360571933156437  0.0000
  O1     O1        0.342479209740342    0.577572447280967    0.365876367280817  0.0000
  O1     O1        0.840360862158990    0.553886888841080    0.674740015873892  0.0000
  O3     O3        0.650908172873183    0.468924300636579    0.687088762869463  0.0000
  O1     O1        0.264799912924392    0.258267936296801    0.314304100452431  0.0000
  O3     O3        0.228028292042925    0.798449768856750    0.296997050691278  0.0000
  O3     O3        0.759459913973020    0.254896136332403    0.740861977689561  0.0000
  O1     O1        0.726045244237927    0.782595902109936    0.736035176994178  0.0000
  O1     O1        0.138291332219799    0.263924494881377    0.146416185520331  0.0000
  O1     O1        0.356225739083859    0.791653381554488    0.144163725905859  0.0000
  O1     O1        0.877007335415155    0.385409613555854    0.899639076669185  0.0000
  O1     O1        0.609389380944127    0.670816991906937    0.901948364341177  0.0000
  O1     O1        0.856265137966940    0.780219536710236    0.892408870931631  0.0000
  O3     O3        0.641316575615721    0.280001587145898    0.894480319105086  0.0000
  O3     O3        0.118720417510798    0.661634078607348    0.154000399219111  0.0000
  O3     O3        0.376630686811723    0.385811015978852    0.146971662038502  0.0000
  O1     O1        0.658984990217882    0.492117508050480    0.118503167062028  0.0000
  O1     O1        0.836958033521553    0.575681216054414    0.117220891627579  0.0000
  O3     O3        0.337280368377008    0.546108799032189    0.938707526713019  0.0000
  O1     O1        0.149560413600867    0.475463383469053    0.929216508521950  0.0000
  O1     O1        0.766349526292555    0.251026353798410    0.063919720246888  0.0000
  O1     O1        0.728664727639738    0.806835187757318    0.050938691566361  0.0000
  O3     O3        0.268071237207284    0.256215625597172    0.995869336703041  0.0000
  O1     O1        0.227703429676784    0.789781059452047    0.978135448644771  0.0000
