data_c00038.vasp
_audit_creation_method             Generated by GULP
_audit_author_name                 Salvador R. G. Balestra
_symmetry_space_group_name_H-M     'P 1             '
_symmetry_Int_Tables_number        1

loop_
_symmetry_equiv_pos_site_id
_symmetry_equiv_pos_as_xyz
_cell_length_a                       17.4470
_cell_length_b                        7.7884
_cell_length_c                       10.4711
_cell_angle_alpha                   91.1147
_cell_angle_beta                    88.4360
_cell_angle_gamma                   87.3825

loop_
_atom_site_label
_atom_site_type_symbol
_atom_site_fract_x
_atom_site_fract_y
_atom_site_fract_z
_atom_site_charge
  Ge     Ge        0.052090000000021    0.000000000000000    0.372269999999958  0.0000
  Ge     Ge        0.454145381347229    0.002072697302999    0.369001964304583  0.0000
  Ge     Ge        0.969892382494388    0.934449273847093    0.648247063544992  0.0000
  Ge     Ge        0.561871606757080    0.989535574171367    0.620084471528436  0.0000
  Ge     Ge        0.558089017348802    0.018175935273489    0.111901629543662  0.0000
  Ge     Ge        0.950348248877797    0.993211750636737    0.114016087427125  0.0000
  Ge     Ge        0.451768772781903    0.011898116921597    0.867758176828828  0.0000
  Ge     Ge        0.070519296862822    0.005298467807808    0.890939533779022  0.0000
  Ge     Ge        0.174698229934317    0.274524072261290    0.293626428737304  0.0000
  Ge     Ge        0.329750529132733    0.732650088042492    0.309381402723027  0.0000
  Ge     Ge        0.839246770229971    0.234345594267488    0.744597848620175  0.0000
  Ge     Ge        0.687726648769790    0.701593373204353    0.723213121933465  0.0000
  Ge     Ge        0.872579731730460    0.622066827285492    0.718131962311698  0.0000
  Ge     Ge        0.661993726276583    0.286461539519514    0.745187599626015  0.0000
  Ge     Ge        0.646112014832446    0.342461498038283    0.049808885228734  0.0000
  Ge     Ge        0.871537464106108    0.650207280721665    0.035424196878887  0.0000
  Ge     Ge        0.364878767770595    0.346394653779404    0.984804834519601  0.0000
  Ge     Ge        0.332305148265976    0.758106972563761    0.002193013200872  0.0000
  Ge     Ge        0.176723645666411    0.301908108180653    0.982941887928753  0.0000
  Ge     Ge        0.684821771439518    0.738507081285720    0.028606161335817  0.0000
  Ge     Ge        0.823514962408214    0.280972644040588    0.060787955454148  0.0000
  Si     Si        0.158562668195864    0.666763090825897    0.316099494375057  0.0000
  Si     Si        0.357325854226149    0.318928291390585    0.284076595195209  0.0000
  Si     Si        0.159570055057771    0.688731572571499    0.013126106758657  0.0000
  O1     O1        0.129527294231989    0.126003929221634    0.382517161055540  0.0000
  O1     O1        0.385440005008495    0.855365374108047    0.402975491221172  0.0000
  O1     O1        0.894304719950443    0.049784995393370    0.726115624444966  0.0000
  O1     O1        0.634249441887844    0.833266260380471    0.627433349444135  0.0000
  O1     O1        0.938649831264331    0.731729002119783    0.630011961029719  0.0000
  O1     O1        0.593239010805722    0.187113701842891    0.660753442653142  0.0000
  O3     O3        0.085721160300955    0.786877866708901    0.356621946787268  0.0000
  O3     O3        0.413211467751490    0.210894986755607    0.373833552722499  0.0000
  O1     O1        0.992046063496575    0.021324839306071    0.503847971499442  0.0000
  O1     O1        0.530231480433983    0.990781545056179    0.466853920155250  0.0000
  O1     O1        0.000750171046931    0.058191674854631    0.242346997742106  0.0000
  O1     O1        0.491464761741609    0.951602564958358    0.219523224800970  0.0000
  O1     O1        0.050595328277315    0.939170773015244    0.740140686124194  0.0000
  O1     O1        0.482070467448099    0.954541897071979    0.716265536551205  0.0000
  O1     O1        0.575899633157385    0.232735861241172    0.129849054954962  0.0000
  O1     O1        0.933643956135691    0.778497577002591    0.113303678761868  0.0000
  O1     O1        0.428357931521896    0.230615544941748    0.887348620671161  0.0000
  O3     O3        0.094751177734156    0.834910640789879    0.993011004739721  0.0000
  O1     O1        0.368817637933058    0.911386405125138    0.908176304750721  0.0000
  O1     O1        0.136834867094265    0.158334301137525    0.880998595262905  0.0000
  O1     O1        0.644622750412950    0.902336866742458    0.121140994589207  0.0000
  O1     O1        0.859436223474204    0.091393785359843    0.115438844478909  0.0000
  O1     O1        0.524496164501048    0.953711255918569    0.965694939271148  0.0000
  O1     O1        0.989240100677625    0.075372392814656    0.975341380724590  0.0000
  O3     O3        0.139505787151024    0.474598981483803    0.350781703224236  0.0000
  O3     O3        0.365679526292025    0.521708799428614    0.300771558802903  0.0000
  O1     O1        0.889982616410516    0.404950769264064    0.691503826204659  0.0000
  O1     O1        0.647917808970590    0.505551229400355    0.733959824272385  0.0000
  O3     O3        0.271379693171913    0.265092239578482    0.318985131019729  0.0000
  O3     O3        0.236631595246328    0.731373474178651    0.374998572231565  0.0000
  O1     O1        0.750437743820707    0.217559744896110    0.679040533164644  0.0000
  O1     O1        0.781225207675868    0.668890023980196    0.667918705534792  0.0000
  O1     O1        0.159071475654765    0.231086880234622    0.135096037534945  0.0000
  O1     O1        0.331713743034734    0.820918856928616    0.160338405773265  0.0000
  O1     O1        0.808854218345889    0.297606258571522    0.897580687503719  0.0000
  O1     O1        0.691642142185807    0.798423474045408    0.871229736447944  0.0000
  O1     O1        0.886247489926462    0.684446019643503    0.874796968780436  0.0000
  O1     O1        0.647620230902275    0.236238885016717    0.902654194571623  0.0000
  O2     O2        0.180115936317571    0.657687022984671    0.162537947950731  0.0000
  O3     O3        0.377125648310517    0.265559348070606    0.136872812665906  0.0000
  O1     O1        0.628944901411679    0.559018231164059    0.039374507065955  0.0000
  O1     O1        0.886595837295677    0.442728234211010    0.084972530983460  0.0000
  O1     O1        0.380832053001155    0.561718066055491    0.980847538739114  0.0000
  O3     O3        0.133567489393266    0.505880429519696    0.961681308385150  0.0000
  O1     O1        0.732503520006776    0.312361251651621    0.124390483653767  0.0000
  O1     O1        0.775663071711765    0.686622327950939    0.076724853964434  0.0000
  O1     O1        0.271270024396128    0.317874945182606    0.944759796608020  0.0000
  O3     O3        0.238607404658355    0.744030009154923    0.948523028596966  0.0000
