data_c00008.vasp
_audit_creation_method             Generated by GULP
_audit_author_name                 Salvador R. G. Balestra
_symmetry_space_group_name_H-M     'P 1             '
_symmetry_Int_Tables_number        1

loop_
_symmetry_equiv_pos_site_id
_symmetry_equiv_pos_as_xyz
_cell_length_a                       17.5738
_cell_length_b                        7.8787
_cell_length_c                       10.2964
_cell_angle_alpha                   89.8178
_cell_angle_beta                    90.2394
_cell_angle_gamma                   87.6917

loop_
_atom_site_label
_atom_site_type_symbol
_atom_site_fract_x
_atom_site_fract_y
_atom_site_fract_z
_atom_site_charge
  Ge     Ge        0.052090000000021    0.000000000000000    0.372269999999958  0.0000
  Ge     Ge        0.448986940330919    0.942110225435021    0.409023719805024  0.0000
  Ge     Ge        0.948404799311362    0.945658037980547    0.623884342039788  0.0000
  Ge     Ge        0.550774172081442    0.005610044860118    0.661549912879293  0.0000
  Ge     Ge        0.561421099200255    0.995321296238214    0.170308394917420  0.0000
  Ge     Ge        0.947954074848984    0.947773260406348    0.115648722938716  0.0000
  Ge     Ge        0.453901727193441    0.935723146287336    0.920850384973564  0.0000
  Ge     Ge        0.056350230654766    0.000139801430603    0.869325201585438  0.0000
  Ge     Ge        0.152580797220143    0.309636214823834    0.305855554543547  0.0000
  Ge     Ge        0.358170721683080    0.625751416383157    0.297982070867401  0.0000
  Ge     Ge        0.827085695783597    0.237315225158183    0.743929771961610  0.0000
  Ge     Ge        0.673722502732554    0.717368061114865    0.740479921688007  0.0000
  Ge     Ge        0.855781672343979    0.637605508736307    0.740056214926605  0.0000
  Ge     Ge        0.645431180387836    0.315562743852280    0.739729993727017  0.0000
  Ge     Ge        0.174986030054052    0.707305658949563    0.302978394605507  0.0000
  Ge     Ge        0.649214248837361    0.314074059380225    0.052368759701711  0.0000
  Ge     Ge        0.853625579579957    0.630867283226437    0.052658841962122  0.0000
  Ge     Ge        0.327704837409813    0.226205932422577    0.985057007218263  0.0000
  Ge     Ge        0.175739461918770    0.710194393444992    0.988742598877600  0.0000
  Ge     Ge        0.358204041583566    0.622581627837977    0.985560635120875  0.0000
  Ge     Ge        0.146704549340154    0.310493895408170    0.988678373774048  0.0000
  Si     Si        0.331108314968330    0.234313503210357    0.294640411775751  0.0000
  Si     Si        0.672923279617801    0.706137281944380    0.047384522462287  0.0000
  Si     Si        0.830308453262356    0.243368379406243    0.051395644495012  0.0000
  O1     O1        0.091181377000109    0.194210545339368    0.395115635830208  0.0000
  O1     O1        0.420407541698206    0.738397316090712    0.389404847566217  0.0000
  O1     O1        0.873110874206573    0.083514170897599    0.655643212993645  0.0000
  O1     O1        0.624927367013865    0.857941636986462    0.642110820958761  0.0000
  O1     O1        0.921236140174308    0.741879709076087    0.650028443554059  0.0000
  O1     O1        0.583543472056720    0.206537069072650    0.644595663564427  0.0000
  O1     O1        0.124582465856126    0.849815262786324    0.396662115525220  0.0000
  O3     O3        0.375713429989511    0.087246927921845    0.374090621591954  0.0000
  O1     O1        0.973634525754128    0.967008290306659    0.463156211346248  0.0000
  O1     O1        0.472675704860652    0.968275041824027    0.570331361706784  0.0000
  O1     O1        0.023426091129372    0.988994525440838    0.211319202500977  0.0000
  O1     O1        0.532230621595712    0.978942367103881    0.328643177345979  0.0000
  O1     O1        0.028605206255058    0.994045288824505    0.709429080463297  0.0000
  O1     O1        0.527128688408265    0.981693326729845    0.823675826359911  0.0000
  O1     O1        0.592248395416996    0.198450157185870    0.148988872887370  0.0000
  O1     O1        0.909462787530634    0.753236447509848    0.146932095290152  0.0000
  O1     O1        0.377178852177641    0.077770682774693    0.898272279397939  0.0000
  O1     O1        0.133861051479851    0.864477500828540    0.893048906264859  0.0000
  O1     O1        0.421069355351347    0.735464389290053    0.896456029366850  0.0000
  O1     O1        0.078963337511397    0.205116974682541    0.905655656231536  0.0000
  O3     O3        0.635708716860831    0.851656583814993    0.136955300533634  0.0000
  O3     O3        0.874471037396019    0.100319605460480    0.135129994381843  0.0000
  O1     O1        0.482418782900756    0.955086639148153    0.080505105731081  0.0000
  O1     O1        0.979446998115308    0.940089797391263    0.957845588097991  0.0000
  O1     O1        0.159791587520260    0.508373446420351    0.366588895142427  0.0000
  O3     O3        0.347156287814922    0.419523417992753    0.353927902085317  0.0000
  O1     O1        0.843742448776443    0.436218440090598    0.682751472319978  0.0000
  O1     O1        0.656947152093897    0.515734577725618    0.683821828621645  0.0000
  O3     O3        0.241370320392538    0.203615881605997    0.299928047531252  0.0000
  O1     O1        0.271128328805175    0.733754795797663    0.303056888057755  0.0000
  O1     O1        0.731900269549825    0.203659078183414    0.740788016423814  0.0000
  O1     O1        0.769137374966383    0.749066970680848    0.734899695326112  0.0000
  O1     O1        0.120412003531912    0.327031246741619    0.148376920075322  0.0000
  O1     O1        0.392016787003107    0.614723515737638    0.143097938226249  0.0000
  O3     O3        0.860178527723757    0.234117570476851    0.903273846858264  0.0000
  O3     O3        0.641045323492491    0.723504470644612    0.900511366562405  0.0000
  O1     O1        0.888233377200672    0.626564330011377    0.897361995947351  0.0000
  O1     O1        0.613242817882454    0.316650281766849    0.897876033633491  0.0000
  O1     O1        0.141864567987712    0.723693119597725    0.145214747638700  0.0000
  O3     O3        0.358296852538484    0.230647878919866    0.145880178122875  0.0000
  O3     O3        0.653597086112248    0.522107564305632    0.105222831598034  0.0000
  O3     O3        0.848599891531497    0.426675255333967    0.111740344885234  0.0000
  O1     O1        0.345969424336649    0.425630503239675    0.923851916991405  0.0000
  O1     O1        0.157470843850451    0.511260729492146    0.928822702591179  0.0000
  O3     O3        0.740188799480618    0.220702863047194    0.050954803791362  0.0000
  O3     O3        0.763100476714101    0.724625962041644    0.041585755626021  0.0000
  O1     O1        0.232279598161229    0.195736856408891    0.978023583648752  0.0000
  O1     O1        0.271933279809667    0.734231837842423    0.992771432782021  0.0000
