data_c00099.vasp
_audit_creation_method             Generated by GULP
_audit_author_name                 Salvador R. G. Balestra
_symmetry_space_group_name_H-M     'P 1             '
_symmetry_Int_Tables_number        1

loop_
_symmetry_equiv_pos_site_id
_symmetry_equiv_pos_as_xyz
_cell_length_a                       17.6659
_cell_length_b                        7.8370
_cell_length_c                       10.2740
_cell_angle_alpha                   90.1288
_cell_angle_beta                    90.3181
_cell_angle_gamma                   91.1816

loop_
_atom_site_label
_atom_site_type_symbol
_atom_site_fract_x
_atom_site_fract_y
_atom_site_fract_z
_atom_site_charge
  Ge     Ge        0.052090000000021    0.000000000000000    0.372269999999958  0.0000
  Ge     Ge        0.443880113926229    0.056982983310213    0.365757401123309  0.0000
  Ge     Ge        0.946799674064589    0.041561364166527    0.630483940515656  0.0000
  Ge     Ge        0.548740629434023    0.992843579014090    0.615087597550193  0.0000
  Ge     Ge        0.541408947648416    0.993244451822995    0.107780279137203  0.0000
  Ge     Ge        0.946475665369103    0.055270449899310    0.118089553081129  0.0000
  Ge     Ge        0.436253985592130    0.058089369993581    0.854265602409231  0.0000
  Ge     Ge        0.166918352187388    0.295158759047110    0.292538817041209  0.0000
  Ge     Ge        0.321654612120877    0.773335396537543    0.292416447737107  0.0000
  Ge     Ge        0.851904992841760    0.358068836453764    0.738674042944868  0.0000
  Ge     Ge        0.642218577629076    0.679068301756311    0.730321528983179  0.0000
  Ge     Ge        0.822760531425407    0.758598799077107    0.732662306904541  0.0000
  Ge     Ge        0.671531181105525    0.277404374382233    0.730535821679135  0.0000
  Ge     Ge        0.347483160147242    0.370754012628790    0.290114911923510  0.0000
  Ge     Ge        0.667464581232090    0.279149291425810    0.046517976570401  0.0000
  Ge     Ge        0.821482044289523    0.767373654703267    0.049089672020219  0.0000
  Ge     Ge        0.343527900845048    0.372029156704477    0.972809452588864  0.0000
  Ge     Ge        0.317304987313006    0.773933355390089    0.974081943848319  0.0000
  Ge     Ge        0.159375299130284    0.303678804659908    0.979729702680650  0.0000
  Ge     Ge        0.642931455466976    0.681796665628697    0.048365078329157  0.0000
  Ge     Ge        0.845764813956490    0.366002281105974    0.056329707956370  0.0000
  Si     Si        0.049114241814517    0.005335246654678    0.875441355774363  0.0000
  Si     Si        0.147411996281212    0.691995369175641    0.296841073299422  0.0000
  Si     Si        0.140315097288608    0.700483713822581    0.991195555853632  0.0000
  O1     O1        0.120351631997098    0.157411230403609    0.394652570735932  0.0000
  O1     O1        0.369583730258342    0.914405366658477    0.389778097384774  0.0000
  O1     O1        0.920792390659741    0.247295008589158    0.660243457173341  0.0000
  O1     O1        0.574151533302440    0.787093197555372    0.646017837363440  0.0000
  O1     O1        0.869761822164720    0.907916664395360    0.641247543601258  0.0000
  O1     O1        0.625346944900118    0.125789970505008    0.638798174730146  0.0000
  O3     O3        0.087753124297897    0.794897258400520    0.380776364924325  0.0000
  O1     O1        0.410897476749681    0.259841506494562    0.382660429048419  0.0000
  O1     O1        0.977611436987584    0.025808926770224    0.472363754848860  0.0000
  O1     O1        0.522329688281757    0.011930922406664    0.453442905744519  0.0000
  O1     O1        0.022040455556149    0.019132894856352    0.213456653393352  0.0000
  O1     O1        0.466058835800673    0.033852383981467    0.202435798869851  0.0000
  O3     O3        0.023106462625649    0.982160313033849    0.726653950200772  0.0000
  O1     O1        0.468073428965616    0.048509129114652    0.696778942594729  0.0000
  O1     O1        0.614106395521820    0.139425256896296    0.135343876481512  0.0000
  O1     O1        0.873862729123229    0.908853747639997    0.140030881215878  0.0000
  O1     O1        0.408139713947049    0.262986347025856    0.884068706040906  0.0000
  O2     O2        0.077241585785808    0.821956760027584    0.929025381894957  0.0000
  O1     O1        0.358250043907535    0.927165679129156    0.879313671907579  0.0000
  O3     O3        0.112909284507311    0.154536246096152    0.882828315136289  0.0000
  O1     O1        0.576663428692525    0.792544958979327    0.132519901143318  0.0000
  O1     O1        0.910113813102617    0.254561909993010    0.144605747180728  0.0000
  O1     O1        0.512067930100419    0.000173770159745    0.947242023518401  0.0000
  O3     O3        0.975368789487701    0.055679529837042    0.955876011916712  0.0000
  O3     O3        0.157297018427198    0.503376152784480    0.351021160551666  0.0000
  O1     O1        0.339407033246605    0.571729232613199    0.349972314852731  0.0000
  O1     O1        0.839633453259442    0.557096188186083    0.673279575382316  0.0000
  O1     O1        0.654657922796259    0.477846075068262    0.668915108890284  0.0000
  O1     O1        0.261960451668096    0.259286980674246    0.289363307640177  0.0000
  O3     O3        0.225104901176048    0.803209506212194    0.300238498151977  0.0000
  O1     O1        0.767150395039370    0.244432598576912    0.730528358652784  0.0000
  O1     O1        0.726950177914357    0.791421390850452    0.726111237884711  0.0000
  O1     O1        0.130912154617059    0.273824782353979    0.137085453876030  0.0000
  O1     O1        0.349050544691824    0.791006386419436    0.132099471611555  0.0000
  O1     O1        0.875753123121821    0.390294034915951    0.898374927138154  0.0000
  O1     O1        0.614405052550468    0.657289781750542    0.888840460460393  0.0000
  O1     O1        0.853004731629617    0.777426752668825    0.891316107325645  0.0000
  O1     O1        0.637595804622517    0.265224145435394    0.886797334235402  0.0000
  O2     O2        0.123080299554057    0.671131344489863    0.144419143673037  0.0000
  O1     O1        0.375817333758764    0.383292594188972    0.130579579959760  0.0000
  O1     O1        0.655253582338272    0.482244382940117    0.108876673704302  0.0000
  O1     O1        0.831859054936467    0.566008778518021    0.115182106046357  0.0000
  O1     O1        0.337416139421137    0.575846688299035    0.913937779190471  0.0000
  O3     O3        0.140348247653365    0.512329601198963    0.929142773183607  0.0000
  O1     O1        0.762726749418417    0.244681347272342    0.052320375918195  0.0000
  O1     O1        0.725954594029613    0.802623517912004    0.049566985255637  0.0000
  O1     O1        0.254912350540569    0.275512441494397    0.968931014350294  0.0000
  O3     O3        0.220066329693864    0.797143081081165    0.973041447354539  0.0000
