data_c00048.vasp
_audit_creation_method             Generated by GULP
_audit_author_name                 Salvador R. G. Balestra
_symmetry_space_group_name_H-M     'P 1             '
_symmetry_Int_Tables_number        1

loop_
_symmetry_equiv_pos_site_id
_symmetry_equiv_pos_as_xyz
_cell_length_a                       17.9388
_cell_length_b                        7.8410
_cell_length_c                       10.2955
_cell_angle_alpha                   90.4103
_cell_angle_beta                    90.0638
_cell_angle_gamma                   89.5497

loop_
_atom_site_label
_atom_site_type_symbol
_atom_site_fract_x
_atom_site_fract_y
_atom_site_fract_z
_atom_site_charge
  Ge     Ge        0.052090000000021    0.000000000000000    0.372269999999958  0.0000
  Ge     Ge        0.440982067911172    0.029580665326643    0.416113351904231  0.0000
  Ge     Ge        0.943066708215591    0.979904907422567    0.620894987855040  0.0000
  Ge     Ge        0.549782085870612    0.023109074739488    0.666260254064735  0.0000
  Ge     Ge        0.550559391927283    0.028162263303504    0.169786803029399  0.0000
  Ge     Ge        0.944847404679014    0.000961610588136    0.121261062778639  0.0000
  Ge     Ge        0.445533332787119    0.018298142734998    0.920467830653679  0.0000
  Ge     Ge        0.049334813469829    0.997720121532121    0.872816242591957  0.0000
  Ge     Ge        0.167412925906522    0.290083916501191    0.305652245120510  0.0000
  Ge     Ge        0.326716415827571    0.735408750420378    0.302897974804948  0.0000
  Ge     Ge        0.823627312449348    0.267772754770658    0.740797848448446  0.0000
  Ge     Ge        0.665927778842633    0.730833678879300    0.732003944933360  0.0000
  Ge     Ge        0.845150434384081    0.671753089829126    0.728286009778507  0.0000
  Ge     Ge        0.645120538733839    0.338932561886005    0.051205990158256  0.0000
  Ge     Ge        0.846571006122793    0.683743742801759    0.045420545837747  0.0000
  Ge     Ge        0.344512080371689    0.335067664978225    0.992266117419651  0.0000
  Ge     Ge        0.146769903190811    0.687069990433943    0.994221066630774  0.0000
  Ge     Ge        0.323328283519006    0.744022387865384    0.987274740503199  0.0000
  Ge     Ge        0.167844702333545    0.277012462864123    0.991065872106534  0.0000
  Ge     Ge        0.668487521042415    0.748044117523371    0.046492522412282  0.0000
  Ge     Ge        0.822321590144060    0.278953113149063    0.057918020223008  0.0000
  Si     Si        0.649056626258431    0.330441207213429    0.740996879196883  0.0000
  Si     Si        0.151636648381756    0.687554242443097    0.305888275058114  0.0000
  Si     Si        0.342966912657749    0.336120020524078    0.302342995666171  0.0000
  O1     O1        0.116946137184923    0.156876205333895    0.401605242192288  0.0000
  O1     O1        0.377090305364762    0.869400088812936    0.398983856650968  0.0000
  O1     O1        0.869828382514166    0.116171732640344    0.652675004210098  0.0000
  O1     O1        0.612828567409533    0.860914335234380    0.634981730190247  0.0000
  O1     O1        0.909364197617273    0.777485554078289    0.637104114182601  0.0000
  O3     O3        0.593134714235360    0.219492807571845    0.654255134525103  0.0000
  O3     O3        0.095205642220141    0.802414800424157    0.389975910479901  0.0000
  O3     O3        0.400509668948217    0.225745066260043    0.385608753345925  0.0000
  O1     O1        0.973610272755508    0.012154410982982    0.464673485344999  0.0000
  O1     O1        0.470795379763259    0.022414504287325    0.574679008360803  0.0000
  O1     O1        0.022059257113564    0.025365429678194    0.214750812363383  0.0000
  O1     O1        0.521453761098445    0.007942068973404    0.327737838994424  0.0000
  O1     O1        0.021402735268671    0.009616632437274    0.713821668931460  0.0000
  O1     O1        0.520866315675512    0.991729667792181    0.823799315903423  0.0000
  O1     O1        0.578138647395571    0.233301521622942    0.134777133894104  0.0000
  O1     O1        0.909465942229047    0.798759181207062    0.134152942878052  0.0000
  O1     O1        0.409860067163390    0.222157009398462    0.907577506981105  0.0000
  O1     O1        0.078733507120297    0.794636419732906    0.913425651909877  0.0000
  O1     O1        0.374404917603318    0.875913839052087    0.892238162941310  0.0000
  O1     O1        0.120663938707093    0.139214767713627    0.893104888659074  0.0000
  O1     O1        0.624512906301003    0.892070238222158    0.145194429711764  0.0000
  O1     O1        0.873834408554475    0.144787153656871    0.152563274882984  0.0000
  O1     O1        0.474733303855921    0.978731497082556    0.076985475319444  0.0000
  O1     O1        0.972349241604025    0.043380297809780    0.964223387344540  0.0000
  O3     O3        0.155857052250851    0.497884430936389    0.362029858328943  0.0000
  O3     O3        0.338369863426337    0.527667419097591    0.357355632887981  0.0000
  O1     O1        0.839256941982322    0.465094247560053    0.674892972461967  0.0000
  O3     O3        0.656932539329777    0.518509166084279    0.683593668943352  0.0000
  O3     O3        0.262196894961847    0.246756985388796    0.307508636823888  0.0000
  O3     O3        0.231933927846172    0.778557239480550    0.308447577562058  0.0000
  O3     O3        0.728388777653419    0.232172179805326    0.742463327602501  0.0000
  O1     O1        0.759367078574706    0.772452712915670    0.721046150297800  0.0000
  O1     O1        0.137007638567201    0.264692580332625    0.148798508070181  0.0000
  O1     O1        0.354333363627428    0.757802100283234    0.145678232836952  0.0000
  O1     O1        0.852235690424910    0.266412749750947    0.899139535814640  0.0000
  O1     O1        0.636445626892564    0.758713186591141    0.889391502701131  0.0000
  O1     O1        0.876048170057880    0.672506525388897    0.886602590408381  0.0000
  O3     O3        0.619573288857281    0.344185324162000    0.888511412847323  0.0000
  O3     O3        0.123611689135363    0.675667773242882    0.157406004379197  0.0000
  O3     O3        0.371319113664093    0.343631737143323    0.154559696006576  0.0000
  O1     O1        0.653824592104921    0.544776448590897    0.104323110719446  0.0000
  O1     O1        0.835477561171686    0.486157321365980    0.110048132265369  0.0000
  O1     O1        0.334864364703676    0.536288470334931    0.933934381150343  0.0000
  O1     O1        0.155175439282363    0.482912135211635    0.936830627374617  0.0000
  O1     O1        0.729182590262981    0.233973359474272    0.066882181008665  0.0000
  O1     O1        0.762044688343814    0.789417731235732    0.044011591183414  0.0000
  O1     O1        0.261137938768290    0.229253428438504    0.985852558741259  0.0000
  O1     O1        0.230073263557690    0.792363866295899    0.979902731825279  0.0000
