data_c00044.vasp
_audit_creation_method             Generated by GULP
_audit_author_name                 Salvador R. G. Balestra
_symmetry_space_group_name_H-M     'P 1             '
_symmetry_Int_Tables_number        1

loop_
_symmetry_equiv_pos_site_id
_symmetry_equiv_pos_as_xyz
_cell_length_a                       17.8784
_cell_length_b                        7.8513
_cell_length_c                       10.3248
_cell_angle_alpha                   91.6775
_cell_angle_beta                    89.7841
_cell_angle_gamma                   89.8922

loop_
_atom_site_label
_atom_site_type_symbol
_atom_site_fract_x
_atom_site_fract_y
_atom_site_fract_z
_atom_site_charge
  Ge     Ge        0.052090000000021    0.000000000000000    0.372269999999958  0.0000
  Ge     Ge        0.448519502608648    0.028894012658623    0.383197369819910  0.0000
  Ge     Ge        0.949694758310503    0.958897656221677    0.625500881616327  0.0000
  Ge     Ge        0.556338938472722    0.993839189504112    0.630652492498711  0.0000
  Ge     Ge        0.550985592424094    0.020819182907595    0.124943112673446  0.0000
  Ge     Ge        0.947406959816125    0.013881562487936    0.116257807817207  0.0000
  Ge     Ge        0.445725889397113    0.015923496981052    0.873651319530825  0.0000
  Ge     Ge        0.056857807174019    0.983160448958827    0.873087267498724  0.0000
  Ge     Ge        0.169359626799428    0.286708370041253    0.305923442482264  0.0000
  Ge     Ge        0.327367945502289    0.745670985305735    0.310444445102139  0.0000
  Ge     Ge        0.829844449977282    0.251996132134099    0.751016460899406  0.0000
  Ge     Ge        0.669902310112414    0.701335129756009    0.735796467688765  0.0000
  Ge     Ge        0.851201390094410    0.654655257142801    0.728191470136353  0.0000
  Ge     Ge        0.349334739210569    0.341169727058832    0.309798357008209  0.0000
  Ge     Ge        0.654658772210370    0.332571400024105    0.062911207998608  0.0000
  Ge     Ge        0.850604133634536    0.687964429447353    0.041176240191048  0.0000
  Ge     Ge        0.352238077134730    0.333706041391542    0.994109480722973  0.0000
  Ge     Ge        0.149331536741989    0.673926506823920    0.996898057922108  0.0000
  Ge     Ge        0.326369516859401    0.741942069904242    0.994581923604468  0.0000
  Ge     Ge        0.173591059204501    0.267547374998479    0.992418224779080  0.0000
  Ge     Ge        0.669925885481378    0.736608877816294    0.047647070302010  0.0000
  Si     Si        0.655485000575686    0.301033578221700    0.751257797239028  0.0000
  Si     Si        0.152259327718551    0.684863286204269    0.306616962025414  0.0000
  Si     Si        0.829367665478635    0.293739945635529    0.062802271812129  0.0000
  O1     O1        0.117242012565542    0.157667075610005    0.401843816511885  0.0000
  O1     O1        0.376759392587551    0.885743808724209    0.405734095654683  0.0000
  O1     O1        0.877823548963103    0.089729171426503    0.678804435046905  0.0000
  O1     O1        0.617130571443270    0.826331572187101    0.637424858546182  0.0000
  O1     O1        0.913608634154814    0.757226820041167    0.631221334717291  0.0000
  O3     O3        0.595460111780592    0.187611720145905    0.674905247780531  0.0000
  O3     O3        0.093628172378909    0.800959768084736    0.386987757151067  0.0000
  O1     O1        0.410262284974166    0.228524621485444    0.402388738460330  0.0000
  O1     O1        0.975313913113303    0.009136734899420    0.470815169785407  0.0000
  O1     O1        0.527093652834849    0.001705729264950    0.472101335003445  0.0000
  O1     O1        0.021881304562742    0.032312611072585    0.217054512934461  0.0000
  O1     O1        0.476197427167930    0.997693979857758    0.223273261487957  0.0000
  O1     O1        0.030398820645188    0.981831558281494    0.713620354832979  0.0000
  O1     O1        0.474779748833985    0.976152531578065    0.717178448916691  0.0000
  O1     O1        0.589625595794952    0.221217745067297    0.145432982688392  0.0000
  O1     O1        0.907947942117137    0.816026722815930    0.132735266632755  0.0000
  O1     O1        0.416309590409501    0.222802715687777    0.901877174592018  0.0000
  O1     O1        0.081276956582187    0.780858723349483    0.918099406386311  0.0000
  O1     O1        0.371809034019658    0.882308569878631    0.900510377285936  0.0000
  O1     O1        0.130030902548093    0.121463653205032    0.893005476766437  0.0000
  O1     O1        0.623568142489412    0.879604632494326    0.145260127392554  0.0000
  O3     O3        0.879726748886424    0.170131425107721    0.146251682148136  0.0000
  O1     O1        0.521435802307619    0.977801190166817    0.969121951326072  0.0000
  O1     O1        0.979582045812255    0.043758556278520    0.961698840033359  0.0000
  O3     O3        0.160009784475389    0.497605642559420    0.362609328151043  0.0000
  O1     O1        0.342230611442066    0.545677234091140    0.368556218320706  0.0000
  O1     O1        0.848117236186252    0.443363246071222    0.681177292257571  0.0000
  O3     O3        0.661285932299291    0.486652521408408    0.691173603008841  0.0000
  O1     O1        0.263192933900679    0.241977277935032    0.310372520749965  0.0000
  O3     O3        0.231710705198456    0.782667655105489    0.309747560872118  0.0000
  O3     O3        0.735296115975216    0.206017014907255    0.741665016405590  0.0000
  O1     O1        0.763329203165341    0.744608238841063    0.721822077814806  0.0000
  O1     O1        0.140113412058147    0.258586110069258    0.148279075195497  0.0000
  O1     O1        0.356743249951832    0.756409831554627    0.152155126983284  0.0000
  O3     O3        0.853083447637920    0.280486330580141    0.912143918610266  0.0000
  O1     O1        0.637614063120300    0.736415579759366    0.890243034559282  0.0000
  O1     O1        0.883774996210152    0.678137921587545    0.884985634163187  0.0000
  O3     O3        0.630513494378257    0.321697153537341    0.900398380647651  0.0000
  O3     O3        0.124669021540288    0.662680707349817    0.158958897819300  0.0000
  O1     O1        0.381926815718786    0.343100586798997    0.152573516626299  0.0000
  O1     O1        0.655770795504839    0.539832558952723    0.113546767613726  0.0000
  O3     O3        0.841815834780667    0.489804391379633    0.108628759174468  0.0000
  O1     O1        0.341341416115692    0.535212785223608    0.938633638752425  0.0000
  O1     O1        0.158335824140374    0.469961750179214    0.936571435510998  0.0000
  O3     O3        0.742955681585354    0.243586674524872    0.078715459292512  0.0000
  O1     O1        0.763354099085527    0.779385871709528    0.037105904536521  0.0000
  O1     O1        0.267772160315904    0.228786255463689    0.992073313633569  0.0000
  O1     O1        0.232123556313709    0.782527722000471    0.986754235450154  0.0000
