data_c00085.vasp
_audit_creation_method             Generated by GULP
_audit_author_name                 Salvador R. G. Balestra
_symmetry_space_group_name_H-M     'P 1             '
_symmetry_Int_Tables_number        1

loop_
_symmetry_equiv_pos_site_id
_symmetry_equiv_pos_as_xyz
_cell_length_a                       17.6412
_cell_length_b                        7.8613
_cell_length_c                       10.4992
_cell_angle_alpha                   90.7443
_cell_angle_beta                    91.0331
_cell_angle_gamma                   90.5331

loop_
_atom_site_label
_atom_site_type_symbol
_atom_site_fract_x
_atom_site_fract_y
_atom_site_fract_z
_atom_site_charge
  Ge     Ge        0.052090000000021    0.000000000000000    0.372269999999958  0.0000
  Ge     Ge        0.456368261021223    0.976088930906343    0.365230217446979  0.0000
  Ge     Ge        0.950404462100494    0.006777629470252    0.629033151595803  0.0000
  Ge     Ge        0.554880972438865    0.966557141680442    0.624568893558699  0.0000
  Ge     Ge        0.559305439256495    0.999106871463573    0.108616624920850  0.0000
  Ge     Ge        0.949581286856026    0.006492094530762    0.109900099391725  0.0000
  Ge     Ge        0.445747058476078    0.982001531876964    0.866045511453410  0.0000
  Ge     Ge        0.151366243236149    0.314321917711020    0.291001296817135  0.0000
  Ge     Ge        0.354257259140379    0.660032497701225    0.296245505169218  0.0000
  Ge     Ge        0.855358326931203    0.319751862843734    0.738853141832015  0.0000
  Ge     Ge        0.648796643672102    0.655931398048597    0.731368202160344  0.0000
  Ge     Ge        0.831574447512184    0.721422373644348    0.734292321370654  0.0000
  Ge     Ge        0.675770879918471    0.254564413002204    0.746731209551423  0.0000
  Ge     Ge        0.174260877101923    0.721934314751330    0.295907127716776  0.0000
  Ge     Ge        0.332308912143137    0.253520183192200    0.288395470325765  0.0000
  Ge     Ge        0.676494782311099    0.292758473406197    0.057055567076681  0.0000
  Ge     Ge        0.328198954707665    0.259605208382518    0.980139834685492  0.0000
  Ge     Ge        0.171310646956928    0.723397215545491    0.985182384047054  0.0000
  Ge     Ge        0.353935328093975    0.663751991185117    0.984447532795670  0.0000
  Ge     Ge        0.145036797959030    0.317345711076884    0.982638949246080  0.0000
  Ge     Ge        0.854905555687031    0.334463760246462    0.050063559828897  0.0000
  Si     Si        0.056136613340163    0.998485050488337    0.871791173689247  0.0000
  Si     Si        0.832285739391198    0.728120242216145    0.034774514743078  0.0000
  Si     Si        0.655249042870120    0.683241514439568    0.031382472346909  0.0000
  O1     O1        0.090359099980343    0.201227436915545    0.383446833845641  0.0000
  O1     O1        0.418923653461465    0.775650178936115    0.385627038608705  0.0000
  O1     O1        0.920843253891264    0.210693746979861    0.653058722512971  0.0000
  O1     O1        0.583819383827094    0.759162124412087    0.639681885859179  0.0000
  O1     O1        0.873776601003596    0.874022463749010    0.646084159293869  0.0000
  O1     O1        0.631607125529609    0.090622858612116    0.666821793517095  0.0000
  O1     O1        0.123901228358616    0.854794523601300    0.391334686170078  0.0000
  O1     O1        0.384435800142243    0.121132497149957    0.381843145084228  0.0000
  O1     O1        0.980346367544233    0.976326909887649    0.476431414373071  0.0000
  O1     O1        0.530313091922258    0.009493454234946    0.469084833161501  0.0000
  O1     O1        0.016840139667519    0.961128938686896    0.220547238807567  0.0000
  O1     O1        0.485899565640565    0.993859089410389    0.210624332429186  0.0000
  O3     O3        0.027426439553490    0.965207040612093    0.728054569845162  0.0000
  O1     O1        0.474911643294211    0.998451720538338    0.711785307757941  0.0000
  O1     O1        0.622734109855851    0.160102424206219    0.146442401117089  0.0000
  O3     O3        0.870420397182769    0.871962081230832    0.123247978809244  0.0000
  O1     O1        0.369621760165162    0.112577225626272    0.883716807867215  0.0000
  O3     O3        0.127377032747644    0.878091450228767    0.896944882760345  0.0000
  O1     O1        0.420020909728370    0.776729068711653    0.902303658417741  0.0000
  O3     O3        0.080367025195471    0.195492829669897    0.894477236162434  0.0000
  O3     O3        0.607081901752300    0.806506051388868    0.118923808677514  0.0000
  O1     O1        0.919841146919752    0.212536695685009    0.130401635668327  0.0000
  O1     O1        0.522275097800146    0.042760249832285    0.960249563555815  0.0000
  O3     O3        0.986443496665873    0.955745349907525    0.962514976108630  0.0000
  O1     O1        0.163868109628759    0.515967426883350    0.348907914848820  0.0000
  O1     O1        0.343666229932532    0.457923560509155    0.349369861316319  0.0000
  O1     O1        0.877972890902006    0.531661909063195    0.725988284614014  0.0000
  O1     O1        0.627612016191877    0.442923401210988    0.729873006378674  0.0000
  O1     O1        0.236870894448613    0.208963633418644    0.286979005956886  0.0000
  O1     O1        0.269380955101155    0.767774118220517    0.298899236383073  0.0000
  O1     O1        0.764335527366709    0.282401146773228    0.684057425839840  0.0000
  O1     O1        0.739864068828119    0.687527476108035    0.681670313936088  0.0000
  O1     O1        0.114983354211194    0.319914372724778    0.137379107198818  0.0000
  O1     O1        0.383126774053522    0.651333903383864    0.140442219674076  0.0000
  O1     O1        0.857551185081878    0.259571566531161    0.895819811964850  0.0000
  O3     O3        0.642086707835460    0.738691068131524    0.885883468322504  0.0000
  O3     O3        0.831606315262132    0.792894863668021    0.890585879965933  0.0000
  O1     O1        0.684254553182657    0.209568253052658    0.905465776674931  0.0000
  O1     O1        0.142730569696744    0.730989897063182    0.139845409594962  0.0000
  O1     O1        0.363065654710075    0.244005837103822    0.133460120711037  0.0000
  O3     O3        0.631105078625987    0.487994852166820    0.048951566522364  0.0000
  O3     O3        0.876854463563995    0.550468098219355    0.049252069484630  0.0000
  O1     O1        0.344720899716249    0.460993545333725    0.923762084547897  0.0000
  O1     O1        0.151098128954128    0.520918135392692    0.926728829858885  0.0000
  O1     O1        0.767379901798499    0.308524537657800    0.116287378410975  0.0000
  O2     O2        0.744810443008158    0.689839928645116    0.070378894000223  0.0000
  O1     O1        0.232300378435135    0.224135678311535    0.981276486421168  0.0000
  O1     O1        0.266927029103822    0.761362715436759    0.977993131328818  0.0000
