data_c00026.vasp
_audit_creation_method             Generated by GULP
_audit_author_name                 Salvador R. G. Balestra
_symmetry_space_group_name_H-M     'P 1             '
_symmetry_Int_Tables_number        1

loop_
_symmetry_equiv_pos_site_id
_symmetry_equiv_pos_as_xyz
_cell_length_a                       17.7046
_cell_length_b                        7.8409
_cell_length_c                       10.3220
_cell_angle_alpha                   89.5675
_cell_angle_beta                    90.5737
_cell_angle_gamma                   88.9079

loop_
_atom_site_label
_atom_site_type_symbol
_atom_site_fract_x
_atom_site_fract_y
_atom_site_fract_z
_atom_site_charge
  Ge     Ge        0.052090000000021    0.000000000000000    0.372269999999958  0.0000
  Ge     Ge        0.445960295751318    0.961629816285968    0.329437287928604  0.0000
  Ge     Ge        0.947304985420329    0.958887365190912    0.624313110738087  0.0000
  Ge     Ge        0.547722977171058    0.010992014338396    0.588351272399691  0.0000
  Ge     Ge        0.553249205804143    0.019354732787552    0.081192043489894  0.0000
  Ge     Ge        0.943957334012297    0.960404681948147    0.125262367086614  0.0000
  Ge     Ge        0.443577237025862    0.964506044006866    0.835902202419236  0.0000
  Ge     Ge        0.050428295807990    0.023663060672392    0.879364209963120  0.0000
  Ge     Ge        0.148719285047308    0.315317965452539    0.254203839219150  0.0000
  Ge     Ge        0.351947552195349    0.641204867682322    0.263476908398616  0.0000
  Ge     Ge        0.824388558146484    0.240341166953949    0.701643421866269  0.0000
  Ge     Ge        0.671115997966622    0.725066881884376    0.695612481506574  0.0000
  Ge     Ge        0.849387801047163    0.645136399176896    0.693254780699552  0.0000
  Ge     Ge        0.644655445418722    0.321934899090418    0.706088396311333  0.0000
  Ge     Ge        0.171890707628665    0.715196235354544    0.265930630317033  0.0000
  Ge     Ge        0.648832180909670    0.337290910838569    0.021608188171200  0.0000
  Ge     Ge        0.327288695509302    0.261136935624449    0.948021221077457  0.0000
  Ge     Ge        0.173639065067253    0.736196942118940    0.952325774858434  0.0000
  Ge     Ge        0.148791197629954    0.337660524751218    0.936373492085186  0.0000
  Ge     Ge        0.675953117108570    0.735024564969218    0.010583654841742  0.0000
  Ge     Ge        0.828544138986660    0.257310396308899    0.014443304648839  0.0000
  Si     Si        0.325945653920999    0.244405805330415    0.255619163751066  0.0000
  Si     Si        0.851856371859626    0.654678010278126    0.001982680800135  0.0000
  Si     Si        0.350393584093110    0.660208403259982    0.958475869846179  0.0000
  O1     O1        0.082322408867723    0.200057592099749    0.332323505090055  0.0000
  O1     O1        0.414153298948989    0.757427912716229    0.353281378002922  0.0000
  O1     O1        0.872642997528922    0.101153680515663    0.604993390055090  0.0000
  O1     O1        0.621937368693987    0.868688338023664    0.601211581534993  0.0000
  O1     O1        0.914802443534768    0.755008404628173    0.606573378506692  0.0000
  O1     O1        0.576172421221083    0.212741943880290    0.625786378157470  0.0000
  O1     O1        0.125983446453390    0.858131884524389    0.362560004255049  0.0000
  O3     O3        0.370882504400885    0.106777422709353    0.342780376110283  0.0000
  O1     O1        0.022722281885098    0.003726033653142    0.531200238533850  0.0000
  O1     O1        0.519005499872959    0.011693482875724    0.427970332463646  0.0000
  O1     O1        0.974231871034350    0.942506302381267    0.283672414762528  0.0000
  O1     O1        0.478102484382232    0.969107084217735    0.172311140544038  0.0000
  O1     O1        0.975899870447901    0.974780702592758    0.784660767163577  0.0000
  O1     O1        0.470641191834220    0.953335693741836    0.676727889380218  0.0000
  O1     O1        0.585173084317383    0.222085745275293    0.108096026089235  0.0000
  O3     O3        0.913517093772805    0.760646046663543    0.079344237818058  0.0000
  O1     O1        0.377862738603669    0.126778200043670    0.852481162518997  0.0000
  O1     O1        0.127414141258647    0.887171137416745    0.861676023111854  0.0000
  O3     O3        0.408803019206796    0.765871390345519    0.874615622463875  0.0000
  O1     O1        0.082902357664833    0.226376100380865    0.851450841969291  0.0000
  O1     O1        0.630555380363220    0.883532247686650    0.101726298880299  0.0000
  O1     O1        0.875304008962816    0.117632667019385    0.115855159184247  0.0000
  O1     O1        0.524016307894303    0.006709771701691    0.921373148545192  0.0000
  O1     O1        0.021644915454855    0.014635362684491    0.038502339778173  0.0000
  O1     O1        0.155966476055380    0.512298379008422    0.322691574555611  0.0000
  O3     O3        0.341872641022418    0.432515886726263    0.312734100129682  0.0000
  O1     O1        0.838063786634916    0.443074304224480    0.639363537054706  0.0000
  O1     O1        0.657179538957791    0.520868987426419    0.640361621702435  0.0000
  O3     O3        0.236780105542207    0.211205756042367    0.257150331019481  0.0000
  O1     O1        0.267049009836796    0.747921371496288    0.270747555513152  0.0000
  O1     O1        0.728946121855712    0.206635738294796    0.702662204988616  0.0000
  O1     O1        0.766209332565054    0.761637111941802    0.687461311197834  0.0000
  O1     O1        0.122701607978225    0.348763695712757    0.096484594786852  0.0000
  O3     O3        0.382077185562483    0.640125078848764    0.104159862850619  0.0000
  O1     O1        0.858864846398629    0.226031632632578    0.858717602416014  0.0000
  O1     O1        0.642392204720502    0.744475295348435    0.853677246811648  0.0000
  O3     O3        0.877519181142967    0.628296351151533    0.854856201876670  0.0000
  O1     O1        0.618359248991911    0.353833385249174    0.863104681671720  0.0000
  O1     O1        0.140368099789878    0.741583974590366    0.108511046658962  0.0000
  O3     O3        0.355773321674794    0.234304785784361    0.108249001444300  0.0000
  O1     O1        0.658864048396779    0.538286696276153    0.079435932474994  0.0000
  O3     O3        0.841969586196788    0.467477937265468    0.063276884093887  0.0000
  O3     O3        0.339393049986327    0.472651688421891    0.900849712289278  0.0000
  O1     O1        0.156925523239749    0.541515828765474    0.881512663999628  0.0000
  O1     O1        0.733504644022233    0.224902972183387    0.020328018410877  0.0000
  O3     O3        0.772843481407960    0.761440201953451    0.005491764509572  0.0000
  O1     O1        0.233238012084454    0.224158441956812    0.931689021921998  0.0000
  O3     O3        0.270495070790334    0.763395510796767    0.959848034930189  0.0000
