data_c00050.vasp
_audit_creation_method             Generated by GULP
_audit_author_name                 Salvador R. G. Balestra
_symmetry_space_group_name_H-M     'P 1             '
_symmetry_Int_Tables_number        1

loop_
_symmetry_equiv_pos_site_id
_symmetry_equiv_pos_as_xyz
_cell_length_a                       17.7284
_cell_length_b                        7.8171
_cell_length_c                       10.1735
_cell_angle_alpha                   88.8493
_cell_angle_beta                    90.3736
_cell_angle_gamma                   90.8321

loop_
_atom_site_label
_atom_site_type_symbol
_atom_site_fract_x
_atom_site_fract_y
_atom_site_fract_z
_atom_site_charge
  Ge     Ge        0.052090000000021    0.000000000000000    0.372269999999958  0.0000
  Ge     Ge        0.443621762925452    0.046706280005443    0.359436720812556  0.0000
  Ge     Ge        0.943647977989297    0.076840463657897    0.612933202230796  0.0000
  Ge     Ge        0.549854272242846    0.024802788903572    0.616788748339465  0.0000
  Ge     Ge        0.553614746485288    0.018224330598914    0.116675099035414  0.0000
  Ge     Ge        0.940614539153145    0.073094272027766    0.127063669556919  0.0000
  Ge     Ge        0.445505880942918    0.077873541802645    0.869971011517220  0.0000
  Ge     Ge        0.042668857336942    0.014287502916515    0.872094146246801  0.0000
  Ge     Ge        0.173384171293252    0.284476070448457    0.254305704224133  0.0000
  Ge     Ge        0.325937633702815    0.754718205134538    0.257699920717374  0.0000
  Ge     Ge        0.848153623748567    0.391916351493653    0.686093458268639  0.0000
  Ge     Ge        0.820559958925737    0.794717124562788    0.682491778564939  0.0000
  Ge     Ge        0.668019476684539    0.315022119009117    0.689953173641853  0.0000
  Ge     Ge        0.144384905687823    0.685691074829547    0.260330245212097  0.0000
  Ge     Ge        0.668197157451217    0.316347479385695    0.005625415982949  0.0000
  Ge     Ge        0.819379279531628    0.794838423050172    0.005878198985847  0.0000
  Ge     Ge        0.343371022564865    0.385514229996732    0.926494028435269  0.0000
  Ge     Ge        0.144783161688276    0.703313509552983    0.940073819791578  0.0000
  Ge     Ge        0.322427866872680    0.788970079236746    0.941075297707158  0.0000
  Ge     Ge        0.168110653547289    0.297785015371616    0.933879722148376  0.0000
  Ge     Ge        0.849661026411124    0.391668459404978    0.005735436117251  0.0000
  Si     Si        0.647641079162034    0.712409206909728    0.683203402111405  0.0000
  Si     Si        0.348704224585685    0.361010049786387    0.242522717894879  0.0000
  Si     Si        0.645371772601844    0.713883900739424    0.994650994517814  0.0000
  O1     O1        0.130661300781491    0.124752360852104    0.343766789854652  0.0000
  O1     O1        0.374502673448573    0.892559971542031    0.356819233056962  0.0000
  O1     O1        0.910520291967901    0.280472156700292    0.592768131625035  0.0000
  O3     O3        0.584360442424478    0.817772278488315    0.605912650685592  0.0000
  O1     O1        0.869733852433577    0.936226180976723    0.585477253285919  0.0000
  O1     O1        0.619060282274238    0.178150646078308    0.590676368083671  0.0000
  O1     O1        0.077805774523068    0.792862667960808    0.347610167818627  0.0000
  O3     O3        0.413369051943193    0.247704325856939    0.309026974382267  0.0000
  O1     O1        0.024125326488790    0.028950199372494    0.532600549690121  0.0000
  O1     O1        0.472609506239519    0.058259566667769    0.521405838473606  0.0000
  O1     O1        0.971993309138977    0.058197069170440    0.287035179709800  0.0000
  O1     O1        0.524056742494332    0.994403453374350    0.276582561510656  0.0000
  O1     O1        0.965319425181730    0.052789225608771    0.779060325952173  0.0000
  O1     O1        0.522148536887947    0.040325279113419    0.778125667778826  0.0000
  O1     O1        0.623705855305742    0.171432091790526    0.107936864623299  0.0000
  O1     O1        0.862360621571109    0.945464813124560    0.100075449277736  0.0000
  O1     O1        0.410280279984848    0.280443141956152    0.842209036583140  0.0000
  O1     O1        0.080170046893065    0.815417771538649    0.849155729410719  0.0000
  O1     O1        0.372964094996831    0.932201995900942    0.847659488721547  0.0000
  O1     O1        0.112361877698681    0.166346439550403    0.842766176272665  0.0000
  O3     O3        0.579607255791617    0.818762696868229    0.059349297983078  0.0000
  O1     O1        0.915538024509968    0.281477146634184    0.095303620406934  0.0000
  O1     O1        0.474159342699528    0.075823883802681    0.032102627006055  0.0000
  O1     O1        0.015838751523686    0.014288428437227    0.035058439896328  0.0000
  O1     O1        0.153217645423164    0.479488344068146    0.319578591184264  0.0000
  O3     O3        0.340459349016904    0.544096162483758    0.310645794455306  0.0000
  O1     O1        0.838289372492075    0.593930439099628    0.624305735683955  0.0000
  O3     O3        0.656108168458309    0.523893762419187    0.628786801458141  0.0000
  O3     O3        0.270046253768473    0.254678777709188    0.253356749934579  0.0000
  O1     O1        0.230711629610539    0.788946264182301    0.266177768870564  0.0000
  O1     O1        0.763145964383522    0.280376636163903    0.689210370502638  0.0000
  O3     O3        0.724321662820272    0.825081328309842    0.671132520930958  0.0000
  O1     O1        0.140416837261526    0.276793570826757    0.095574761461977  0.0000
  O1     O1        0.356420769660616    0.795063389265977    0.100121756261894  0.0000
  O1     O1        0.879663765950701    0.406740310012695    0.845646574133087  0.0000
  O2     O2        0.630387473069842    0.685983952781970    0.839066448244131  0.0000
  O1     O1        0.847492937568061    0.811728120846732    0.844753265585659  0.0000
  O1     O1        0.635626735366563    0.287353206587145    0.848251069221468  0.0000
  O1     O1        0.115100073381831    0.674717668300196    0.099843794540219  0.0000
  O3     O3        0.366496614071612    0.406906500338444    0.091760761649265  0.0000
  O3     O3        0.651998778147440    0.524520229287222    0.056920209148963  0.0000
  O1     O1        0.841211733044937    0.593995697275046    0.065133646274271  0.0000
  O1     O1        0.331860754028310    0.589870864078161    0.871400571880947  0.0000
  O1     O1        0.158114697169389    0.506354030746430    0.877038837624352  0.0000
  O1     O1        0.763656778862679    0.286397367067772    0.009688658169997  0.0000
  O3     O3        0.722625774382406    0.821480866597711    0.013683075677926  0.0000
  O1     O1        0.262511230677951    0.259929675157647    0.920728247334301  0.0000
  O1     O1        0.227208589497172    0.824474540199631    0.944661562028203  0.0000
