data_c00071.vasp
_audit_creation_method             Generated by GULP
_audit_author_name                 Salvador R. G. Balestra
_symmetry_space_group_name_H-M     'P 1             '
_symmetry_Int_Tables_number        1

loop_
_symmetry_equiv_pos_site_id
_symmetry_equiv_pos_as_xyz
_cell_length_a                       17.6349
_cell_length_b                        7.8257
_cell_length_c                       10.3411
_cell_angle_alpha                   90.1029
_cell_angle_beta                    90.4323
_cell_angle_gamma                   91.1831

loop_
_atom_site_label
_atom_site_type_symbol
_atom_site_fract_x
_atom_site_fract_y
_atom_site_fract_z
_atom_site_charge
  Ge     Ge        0.052090000000021    0.000000000000000    0.372269999999958  0.0000
  Ge     Ge        0.451053831802458    0.046384937924049    0.403347927580725  0.0000
  Ge     Ge        0.950331180490675    0.051089630362199    0.628883961294286  0.0000
  Ge     Ge        0.552290538910412    0.992278908907070    0.660159332868647  0.0000
  Ge     Ge        0.560169487249310    0.999369365048302    0.161600578907699  0.0000
  Ge     Ge        0.949436744958005    0.060425620680058    0.112105822415708  0.0000
  Ge     Ge        0.450875087564516    0.057054176512757    0.914510259245516  0.0000
  Ge     Ge        0.176493929491371    0.279418862636292    0.296199765034749  0.0000
  Ge     Ge        0.327746719597181    0.762369136204988    0.293770511106414  0.0000
  Ge     Ge        0.854884956851956    0.361692325314118    0.744013321234203  0.0000
  Ge     Ge        0.650125742372243    0.679129193891767    0.732583633209838  0.0000
  Ge     Ge        0.828531204323622    0.765385512864923    0.734410975258079  0.0000
  Ge     Ge        0.676344699420885    0.273476595443568    0.738480169277650  0.0000
  Ge     Ge        0.147319079838573    0.681408958695225    0.299963442506252  0.0000
  Ge     Ge        0.356451278086468    0.360636025652135    0.287950209458145  0.0000
  Ge     Ge        0.675023105643809    0.294728289366333    0.051137588594237  0.0000
  Ge     Ge        0.828983404197507    0.764024408804061    0.047074440359258  0.0000
  Ge     Ge        0.349852717600491    0.369294982932346    0.971296226496876  0.0000
  Ge     Ge        0.144299320954095    0.689788835263576    0.986681278589839  0.0000
  Ge     Ge        0.325425873856068    0.770135970429970    0.980647404389859  0.0000
  Ge     Ge        0.170038445380833    0.285020947729495    0.980514510940366  0.0000
  Si     Si        0.053510001011356    0.998062953293262    0.870339338988832  0.0000
  Si     Si        0.651233237840825    0.689828848307788    0.041493997468391  0.0000
  Si     Si        0.852003797800756    0.373043849391101    0.052508771788761  0.0000
  O1     O1        0.128780600239861    0.137477161501627    0.392023246120922  0.0000
  O1     O1        0.374343715756638    0.911331432368541    0.386973671173426  0.0000
  O1     O1        0.924612549139116    0.255107276499565    0.666553823517392  0.0000
  O1     O1        0.583293538188064    0.786225333430466    0.645540871063250  0.0000
  O1     O1        0.875648605388517    0.909909780168311    0.639617988183249  0.0000
  O1     O1        0.627651936628807    0.133268991574605    0.640976365369681  0.0000
  O1     O1        0.083317988483022    0.794727017438475    0.388363292258733  0.0000
  O1     O1        0.426481472410989    0.251466658781401    0.365586159007752  0.0000
  O1     O1        0.978681640826881    0.046409166426748    0.470237216394443  0.0000
  O1     O1        0.477337780009858    0.038490586162286    0.564417305027774  0.0000
  O1     O1        0.023105641836116    0.029290246931547    0.213339152188501  0.0000
  O1     O1        0.529489081887157    0.985033592655173    0.318632895897745  0.0000
  O3     O3        0.028052029523341    0.993866359233677    0.721031779120573  0.0000
  O1     O1        0.525611533572752    0.013769376529066    0.819944228442520  0.0000
  O1     O1        0.631508744001466    0.151927072894772    0.151731793777835  0.0000
  O1     O1        0.878376142485561    0.909977188185886    0.138275214175629  0.0000
  O1     O1        0.415243047563222    0.257411498339876    0.886802415414133  0.0000
  O3     O3        0.076840250887456    0.806711765718282    0.906691842342245  0.0000
  O1     O1        0.376161675591455    0.914145682517909    0.891652426492129  0.0000
  O3     O3        0.123229581373936    0.131021513051422    0.889320054586735  0.0000
  O3     O3        0.590160263515815    0.798269291350145    0.117347752351523  0.0000
  O3     O3        0.911911928293845    0.262985445516030    0.131499556713553  0.0000
  O1     O1        0.482078663474095    0.054142157006489    0.073248407282574  0.0000
  O3     O3        0.981445159378092    0.054246744731236    0.953728124129951  0.0000
  O1     O1        0.161770356235998    0.481665604840344    0.358478371989809  0.0000
  O1     O1        0.344304888298063    0.560257281388726    0.352655727982775  0.0000
  O1     O1        0.842836086211485    0.560236922203609    0.679316803940690  0.0000
  O1     O1        0.661814435174145    0.476767873038787    0.678301655436508  0.0000
  O1     O1        0.272151285533088    0.244698102956058    0.296060021749342  0.0000
  O1     O1        0.232023588806063    0.795606631958065    0.295407670686002  0.0000
  O1     O1        0.772196330862288    0.240763792108801    0.735500197092939  0.0000
  O1     O1        0.732866054761933    0.798920957674011    0.727087957930031  0.0000
  O1     O1        0.142883636932436    0.271104027251154    0.138997013660968  0.0000
  O1     O1        0.359252500282861    0.780585013849637    0.137265191367429  0.0000
  O3     O3        0.877917590486964    0.398091591343537    0.904570666572882  0.0000
  O3     O3        0.624509806662741    0.662954465831764    0.894128290632264  0.0000
  O1     O1        0.859785679997083    0.789019421322342    0.891336390860431  0.0000
  O1     O1        0.644006923783166    0.259385208916546    0.895661424439937  0.0000
  O1     O1        0.115075714616351    0.664373063430640    0.142864701244132  0.0000
  O1     O1        0.379616368641689    0.391458638240501    0.129481844039095  0.0000
  O3     O3        0.658283173161745    0.502088537556363    0.102719146856231  0.0000
  O3     O3        0.844439553450469    0.561615875668760    0.110755577835498  0.0000
  O1     O1        0.337485588533086    0.570188255020970    0.913088439916588  0.0000
  O1     O1        0.152999190464877    0.488282875712970    0.923151691172366  0.0000
  O3     O3        0.772118421525196    0.268759882503527    0.052444455110015  0.0000
  O3     O3        0.731808161847227    0.792098923303206    0.047123434044113  0.0000
  O1     O1        0.265572553561466    0.253173649930423    0.971500381343837  0.0000
  O1     O1        0.229404011699042    0.801356775438926    0.982599651607768  0.0000
