data_c00063.vasp
_audit_creation_method             Generated by GULP
_audit_author_name                 Salvador R. G. Balestra
_symmetry_space_group_name_H-M     'P 1             '
_symmetry_Int_Tables_number        1

loop_
_symmetry_equiv_pos_site_id
_symmetry_equiv_pos_as_xyz
_cell_length_a                       17.8718
_cell_length_b                        7.8332
_cell_length_c                       10.3896
_cell_angle_alpha                   90.7135
_cell_angle_beta                    90.3900
_cell_angle_gamma                   89.8673

loop_
_atom_site_label
_atom_site_type_symbol
_atom_site_fract_x
_atom_site_fract_y
_atom_site_fract_z
_atom_site_charge
  Ge     Ge        0.052090000000021    0.000000000000000    0.372269999999958  0.0000
  Ge     Ge        0.446026195731233    0.030735623627607    0.341448250855943  0.0000
  Ge     Ge        0.942335505298884    0.988834615061331    0.618281406780124  0.0000
  Ge     Ge        0.553653910391649    0.015683748158340    0.590301717123904  0.0000
  Ge     Ge        0.544738120715962    0.019641528395372    0.081427245220373  0.0000
  Ge     Ge        0.941101125948954    0.996768027847816    0.126776275205093  0.0000
  Ge     Ge        0.440190539822570    0.022967501556217    0.829988522650598  0.0000
  Ge     Ge        0.044451414958660    0.999259665695929    0.876991874620123  0.0000
  Ge     Ge        0.167275015068696    0.290648213422247    0.261236785354199  0.0000
  Ge     Ge        0.325423772559822    0.751398846025437    0.261465238983198  0.0000
  Ge     Ge        0.824233931825264    0.274539523525642    0.695031236462122  0.0000
  Ge     Ge        0.840175543373710    0.677881576599107    0.690580154073781  0.0000
  Ge     Ge        0.346515197776369    0.344592555722293    0.266266135374510  0.0000
  Ge     Ge        0.643787103650521    0.332362683449573    0.005081850198587  0.0000
  Ge     Ge        0.845736289817439    0.683213774035400    0.006757427274112  0.0000
  Ge     Ge        0.345786754804573    0.337583558836207    0.951095330472099  0.0000
  Ge     Ge        0.144650704185903    0.684553598561572    0.951872031749766  0.0000
  Ge     Ge        0.322007730770872    0.748437816265232    0.948668652069401  0.0000
  Ge     Ge        0.167289394485575    0.275456849679130    0.948845917975131  0.0000
  Ge     Ge        0.667741178023650    0.743416729236476    0.008238082195385  0.0000
  Ge     Ge        0.822327443212424    0.273410462978246    0.007281995548691  0.0000
  Si     Si        0.664312028071521    0.726245088099067    0.702548974811016  0.0000
  Si     Si        0.647296306449954    0.326574419015348    0.702993609228348  0.0000
  Si     Si        0.149931297985219    0.693417077206116    0.257567716292278  0.0000
  O1     O1        0.114373309836158    0.164029690809076    0.357745922658616  0.0000
  O1     O1        0.373078513858099    0.889226998702462    0.360109181226250  0.0000
  O1     O1        0.871729942675400    0.136641100343295    0.597148743129346  0.0000
  O3     O3        0.614871047617704    0.847459833649622    0.612928641478757  0.0000
  O1     O1        0.900053884161753    0.793725574269958    0.598946034001782  0.0000
  O3     O3        0.594268314644607    0.215217695184991    0.610493388570039  0.0000
  O3     O3        0.093051301188558    0.803377756925526    0.343136882395471  0.0000
  O1     O1        0.409318083162290    0.232218964702077    0.357859228419402  0.0000
  O1     O1        0.021064954197495    0.006786033040919    0.528974340378820  0.0000
  O1     O1        0.524196617057135    0.000890902588827    0.432668003579872  0.0000
  O1     O1        0.971679302706620    0.018678873150671    0.282940614057700  0.0000
  O1     O1        0.472793544809573    0.995215162417127    0.183720493134496  0.0000
  O1     O1        0.970517818526054    0.021035289233943    0.776199277685185  0.0000
  O1     O1        0.472165949819213    0.004326584543449    0.674923808641315  0.0000
  O1     O1        0.579722226575431    0.224207363613288    0.093124493434430  0.0000
  O1     O1        0.912315752624683    0.791198479554279    0.093026297419206  0.0000
  O1     O1        0.410327914684015    0.228069502082090    0.862207237887508  0.0000
  O1     O1        0.078675346801252    0.793624223641390    0.866856066551528  0.0000
  O1     O1        0.366672528842444    0.885124979548325    0.849065706973805  0.0000
  O1     O1        0.117063168273541    0.139776423621371    0.852480285723369  0.0000
  O1     O1        0.617914547177857    0.878474233079991    0.103561747578445  0.0000
  O1     O1        0.867171165736514    0.133505356424805    0.105232860441494  0.0000
  O1     O1        0.513482580338302    0.972117615594591    0.928294981886544  0.0000
  O1     O1        0.014911795850351    0.046286538008516    0.030871779710069  0.0000
  O3     O3        0.159314973124084    0.503502474758291    0.311102345136284  0.0000
  O1     O1        0.340525213849191    0.549993707927998    0.320502675754332  0.0000
  O1     O1        0.838947740046992    0.473918841187970    0.633587235046213  0.0000
  O2     O2        0.654497524007307    0.525373502028467    0.661640930678303  0.0000
  O1     O1        0.260754482310072    0.243603553046070    0.271034007775611  0.0000
  O3     O3        0.229728059107825    0.789428845091823    0.258375050268360  0.0000
  O3     O3        0.728701411574380    0.239629934602794    0.700326821280401  0.0000
  O3     O3        0.751416043826989    0.770367222663042    0.688923400642953  0.0000
  O1     O1        0.137213927392419    0.264518331098897    0.105980666307921  0.0000
  O1     O1        0.354812664063455    0.764691532529053    0.104446606688400  0.0000
  O1     O1        0.854885636833915    0.260657461041018    0.851900793934419  0.0000
  O3     O3        0.638592966914870    0.754146641377987    0.848322015247689  0.0000
  O1     O1        0.871254906578857    0.678929906048551    0.847464906223787  0.0000
  O3     O3        0.613335210572575    0.320920032129459    0.845191324422637  0.0000
  O3     O3        0.117953295824081    0.681770950629063    0.112756656870650  0.0000
  O1     O1        0.375721193124391    0.344514939837235    0.108620012251467  0.0000
  O1     O1        0.652394383105447    0.537202201852547    0.058163802417356  0.0000
  O1     O1        0.836197160459627    0.479947783136922    0.061875828022266  0.0000
  O1     O1        0.334560514960780    0.540581104546486    0.895799884820924  0.0000
  O1     O1        0.153666685605917    0.481226966602478    0.895156270008860  0.0000
  O1     O1        0.728545885385372    0.229709411817224    0.010606413960080  0.0000
  O1     O1        0.760976457528845    0.787821977935068    0.017912176245283  0.0000
  O1     O1        0.261155351869561    0.232060827977235    0.945530027967611  0.0000
  O1     O1        0.228000044919994    0.792208246209950    0.945175627713325  0.0000
