data_c00013.vasp
_audit_creation_method             Generated by GULP
_audit_author_name                 Salvador R. G. Balestra
_symmetry_space_group_name_H-M     'P 1             '
_symmetry_Int_Tables_number        1

loop_
_symmetry_equiv_pos_site_id
_symmetry_equiv_pos_as_xyz
_cell_length_a                       17.6156
_cell_length_b                        7.8401
_cell_length_c                       10.3170
_cell_angle_alpha                   89.7660
_cell_angle_beta                    90.6117
_cell_angle_gamma                   88.5691

loop_
_atom_site_label
_atom_site_type_symbol
_atom_site_fract_x
_atom_site_fract_y
_atom_site_fract_z
_atom_site_charge
  Ge     Ge        0.052090000000021    0.000000000000000    0.372269999999958  0.0000
  Ge     Ge        0.444238898952678    0.949643812536588    0.406722820625205  0.0000
  Ge     Ge        0.946133324320473    0.953596153977998    0.622336122680242  0.0000
  Ge     Ge        0.544587948639929    0.002913437434469    0.663178708078222  0.0000
  Ge     Ge        0.553598453803383    0.000897913163907    0.167401494294699  0.0000
  Ge     Ge        0.950881916707607    0.936489414977034    0.115391019282369  0.0000
  Ge     Ge        0.443871335189874    0.936189646070760    0.920766906466903  0.0000
  Ge     Ge        0.056457704762402    0.997842968824921    0.867570502195135  0.0000
  Ge     Ge        0.150854471859054    0.312127379545837    0.299299528109023  0.0000
  Ge     Ge        0.353635000013086    0.632581330173145    0.286701212334131  0.0000
  Ge     Ge        0.823599325608629    0.237564378244626    0.731507866774936  0.0000
  Ge     Ge        0.671081973317600    0.721493265530007    0.734570006879494  0.0000
  Ge     Ge        0.852043786068366    0.638991144516907    0.737614311006336  0.0000
  Ge     Ge        0.642692995452092    0.319327327851309    0.730706213391760  0.0000
  Ge     Ge        0.173014008526003    0.714888678214173    0.294935943991666  0.0000
  Ge     Ge        0.644949211449185    0.312529830847358    0.045663291869710  0.0000
  Ge     Ge        0.852768026369985    0.623672165143170    0.053497061911561  0.0000
  Ge     Ge        0.324018304003813    0.233795688444308    0.986606342223736  0.0000
  Ge     Ge        0.170562055047379    0.700546776804048    0.982484156141347  0.0000
  Ge     Ge        0.673666938663041    0.715911843468671    0.049893939103192  0.0000
  Ge     Ge        0.825020533244960    0.223455673756682    0.045811412796825  0.0000
  Si     Si        0.327384139892448    0.235667791463660    0.293236785887128  0.0000
  Si     Si        0.349035579033766    0.625417238758462    0.981031170681740  0.0000
  Si     Si        0.146544014625230    0.305950165593514    0.989798887565622  0.0000
  O1     O1        0.088262324832635    0.200554023943029    0.389300514688268  0.0000
  O1     O1        0.419101192360855    0.743937236840565    0.372427329468848  0.0000
  O1     O1        0.870088931899669    0.091260453380361    0.636793105531291  0.0000
  O1     O1        0.620489961531928    0.863730509964161    0.640189510579587  0.0000
  O1     O1        0.919904663504900    0.749483444027931    0.657148458673565  0.0000
  O1     O1        0.576631038149360    0.206665351246402    0.645192449196552  0.0000
  O1     O1        0.125638498882040    0.853871003491580    0.393812688656574  0.0000
  O3     O3        0.370797099366100    0.095813111817409    0.380700097734946  0.0000
  O1     O1        0.974701745248567    0.961837600061732    0.462612592116987  0.0000
  O1     O1        0.467653550349021    0.961020382905507    0.568794039656443  0.0000
  O1     O1        0.025802954917939    0.983357923465024    0.210803943989025  0.0000
  O1     O1        0.525301571502392    0.999014222948887    0.326346933255298  0.0000
  O1     O1        0.025089821618502    0.011314829917854    0.709703108984464  0.0000
  O1     O1        0.517998203144154    0.972869780207124    0.822905622275989  0.0000
  O1     O1        0.578617872090547    0.205604725992978    0.131162580041799  0.0000
  O1     O1        0.918162731544179    0.733768142700613    0.141193123402385  0.0000
  O1     O1        0.372495128607077    0.089299039123313    0.896416691116163  0.0000
  O1     O1        0.128573252994855    0.846321946075351    0.880247178953606  0.0000
  O3     O3        0.404958848730312    0.736460750800967    0.895522074824784  0.0000
  O3     O3        0.084981065546808    0.199419044089619    0.912592470185981  0.0000
  O1     O1        0.629319619556704    0.862323088606968    0.146850000856310  0.0000
  O1     O1        0.875658809386217    0.078299795618052    0.136539846010649  0.0000
  O1     O1        0.475950299359011    0.941442307087200    0.078318982345986  0.0000
  O1     O1        0.979522003104563    0.941445407584791    0.955769024332170  0.0000
  O1     O1        0.157698744452095    0.513214525382895    0.356028218211726  0.0000
  O3     O3        0.342972832795331    0.426450814845564    0.344308937937871  0.0000
  O1     O1        0.838706450068260    0.440196754018944    0.673124907225885  0.0000
  O1     O1        0.655447089614116    0.520116227287479    0.672786921170256  0.0000
  O3     O3        0.237912373372908    0.203539231881300    0.299026857630960  0.0000
  O1     O1        0.268921401225368    0.744201258805417    0.296611400556716  0.0000
  O1     O1        0.727716869954580    0.204918057645310    0.730273059750863  0.0000
  O1     O1        0.767100242062410    0.754122247299015    0.732383553437306  0.0000
  O3     O3        0.121741174728279    0.326520363888250    0.138267591758767  0.0000
  O3     O3        0.381642693697595    0.613590606755592    0.127635396372991  0.0000
  O1     O1        0.856641429388231    0.215144604090128    0.888312780873839  0.0000
  O1     O1        0.640631371719556    0.733412729621765    0.892849450512353  0.0000
  O1     O1        0.880687936548667    0.605090210039987    0.894613676980002  0.0000
  O1     O1        0.613511053560501    0.335768310337008    0.888718961790240  0.0000
  O1     O1        0.138915928505281    0.732276623047693    0.137368260317106  0.0000
  O3     O3        0.355792286225311    0.217014277059995    0.145845124117467  0.0000
  O1     O1        0.658897817688426    0.511832572410658    0.107028771708653  0.0000
  O1     O1        0.839601634386877    0.423403505686418    0.111451423462164  0.0000
  O3     O3        0.340951528713822    0.436622093278347    0.925774201183343  0.0000
  O3     O3        0.152618997927184    0.494672212175749    0.930168799871018  0.0000
  O1     O1        0.728987802380167    0.193670003490398    0.046584605385965  0.0000
  O1     O1        0.769581861442125    0.744960027889539    0.051063562936339  0.0000
  O3     O3        0.227366777043220    0.204242375489111    0.981610572953391  0.0000
  O3     O3        0.267684440975473    0.723983956564363    0.986695229103852  0.0000
