data_c00032.vasp
_audit_creation_method             Generated by GULP
_audit_author_name                 Salvador R. G. Balestra
_symmetry_space_group_name_H-M     'P 1             '
_symmetry_Int_Tables_number        1

loop_
_symmetry_equiv_pos_site_id
_symmetry_equiv_pos_as_xyz
_cell_length_a                       17.6260
_cell_length_b                        7.8392
_cell_length_c                       10.3138
_cell_angle_alpha                   89.0406
_cell_angle_beta                    90.4845
_cell_angle_gamma                   88.5743

loop_
_atom_site_label
_atom_site_type_symbol
_atom_site_fract_x
_atom_site_fract_y
_atom_site_fract_z
_atom_site_charge
  Ge     Ge        0.052090000000021    0.000000000000000    0.372269999999958  0.0000
  Ge     Ge        0.446226736855727    0.954641833834643    0.404642263607153  0.0000
  Ge     Ge        0.945118200532324    0.951186978629462    0.620769376638461  0.0000
  Ge     Ge        0.545655218171107    0.004549979910619    0.662682205823973  0.0000
  Ge     Ge        0.557754486038661    0.994411694582476    0.166680795169788  0.0000
  Ge     Ge        0.950294499206254    0.929652901742996    0.117218479302418  0.0000
  Ge     Ge        0.445764636647815    0.945567771744524    0.921998451206787  0.0000
  Ge     Ge        0.053440315787495    0.005944950786202    0.867064098958979  0.0000
  Ge     Ge        0.150872617310247    0.315628597039721    0.302886666211391  0.0000
  Ge     Ge        0.355415736198925    0.636843316526352    0.289634273790006  0.0000
  Ge     Ge        0.823622672467018    0.235117774778446    0.731135007199582  0.0000
  Ge     Ge        0.670486639953642    0.721923572349956    0.739173763117625  0.0000
  Ge     Ge        0.851002796274974    0.637430813078431    0.740981350673975  0.0000
  Ge     Ge        0.643994590735838    0.316844697967098    0.734177409175692  0.0000
  Ge     Ge        0.174671086500987    0.716101517947349    0.300049396967940  0.0000
  Ge     Ge        0.852718334644918    0.616190288385540    0.058030844270310  0.0000
  Ge     Ge        0.325281803595828    0.242464142054482    0.985527147667917  0.0000
  Ge     Ge        0.172240989234425    0.718455841393984    0.985850827345363  0.0000
  Ge     Ge        0.144428952531057    0.317777868479963    0.986060471517621  0.0000
  Ge     Ge        0.672358887482687    0.699324272583317    0.053186211421895  0.0000
  Ge     Ge        0.825942626978853    0.218355412493292    0.045111012874616  0.0000
  Si     Si        0.328379761213341    0.240520328542346    0.292626094160766  0.0000
  Si     Si        0.648830585644405    0.301547280206997    0.041699271405059  0.0000
  Si     Si        0.349595988858454    0.636400667788253    0.984734922049135  0.0000
  O1     O1        0.089023656315668    0.198527472704509    0.392743056331646  0.0000
  O1     O1        0.421559755087406    0.748385094033442    0.372605451156608  0.0000
  O1     O1        0.870298164191371    0.092136224673883    0.635272071399564  0.0000
  O1     O1        0.621309371542123    0.864207159482660    0.641620167524001  0.0000
  O1     O1        0.918278802864585    0.747727746649500    0.657931920064725  0.0000
  O1     O1        0.577032904226064    0.210050468703515    0.648727356287886  0.0000
  O1     O1        0.125749670540652    0.854732126583041    0.396018980612268  0.0000
  O3     O3        0.371456030180060    0.097566194553071    0.379223575287820  0.0000
  O1     O1        0.973944674966573    0.959014551396289    0.461208084595417  0.0000
  O1     O1        0.469516887028302    0.966319269854095    0.566864747404997  0.0000
  O1     O1        0.024408262958724    0.985116385519402    0.211031223461049  0.0000
  O1     O1        0.527545215106962    0.005890338939717    0.324480276375640  0.0000
  O1     O1        0.023923025455685    0.006433187499103    0.708146070916598  0.0000
  O1     O1        0.520176598954163    0.971579188040684    0.822607976948598  0.0000
  O3     O3        0.590144328516584    0.194259690705877    0.124641674337081  0.0000
  O1     O1        0.918481705349170    0.726176441125988    0.144269210486780  0.0000
  O1     O1        0.377450834408714    0.104583262658450    0.895492771041805  0.0000
  O1     O1        0.132556228580943    0.875354049892848    0.889591532161633  0.0000
  O3     O3        0.405090947071215    0.747810689190162    0.897916192401136  0.0000
  O1     O1        0.076027843323983    0.211483947818746    0.904671775345101  0.0000
  O1     O1        0.625756999407462    0.835128048501955    0.154882487119401  0.0000
  O1     O1        0.872445028104733    0.065501609709451    0.135234686522713  0.0000
  O1     O1        0.477842245595519    0.950055622720220    0.079493198739397  0.0000
  O1     O1        0.979154227077347    0.936071598519448    0.957533522007532  0.0000
  O1     O1        0.159424772875977    0.514186228607272    0.362907877501811  0.0000
  O3     O3        0.344824199898180    0.428940927838587    0.346120191842255  0.0000
  O1     O1        0.837657974686891    0.440476462151464    0.675570984151500  0.0000
  O1     O1        0.655017876702902    0.520240930026134    0.679692874889723  0.0000
  O3     O3        0.238698224038959    0.209825043481463    0.296252898436881  0.0000
  O1     O1        0.270460337287019    0.746765447019423    0.302658306980175  0.0000
  O1     O1        0.728019349775753    0.200864195842712    0.727123381140099  0.0000
  O1     O1        0.766473776101625    0.753800794959157    0.737793597764294  0.0000
  O1     O1        0.118834933648369    0.333282060244160    0.145472016455709  0.0000
  O3     O3        0.383317666903073    0.619910710959334    0.130383521190819  0.0000
  O1     O1        0.857522258532228    0.209947483108633    0.887573818741286  0.0000
  O1     O1        0.639985314176861    0.733823848658916    0.897657417016648  0.0000
  O1     O1        0.879544587359537    0.602662577138497    0.898180308760842  0.0000
  O3     O3        0.617522377084740    0.327434078188244    0.896017582219911  0.0000
  O1     O1        0.140492326904831    0.733742482691335    0.142739001103930  0.0000
  O3     O3        0.356581884601441    0.224890029034243    0.145187630197365  0.0000
  O3     O3        0.660744582815990    0.486854816873028    0.101220205177901  0.0000
  O1     O1        0.844558676673698    0.412069224689422    0.114305596763619  0.0000
  O3     O3        0.338088805632721    0.450453414033655    0.928049760696275  0.0000
  O1     O1        0.151476826261904    0.521816892234288    0.925370951900528  0.0000
  O3     O3        0.728576477086261    0.195029790467840    0.039386932605664  0.0000
  O1     O1        0.767947835472058    0.730619056853289    0.060387786747321  0.0000
  O1     O1        0.230244814339039    0.207700841825794    0.975088953150897  0.0000
  O3     O3        0.269431428957901    0.739069996708176    0.994708469205857  0.0000
