data_c00021.vasp
_audit_creation_method             Generated by GULP
_audit_author_name                 Salvador R. G. Balestra
_symmetry_space_group_name_H-M     'P 1             '
_symmetry_Int_Tables_number        1

loop_
_symmetry_equiv_pos_site_id
_symmetry_equiv_pos_as_xyz
_cell_length_a                       17.6243
_cell_length_b                        7.8443
_cell_length_c                       10.2348
_cell_angle_alpha                   88.8082
_cell_angle_beta                    91.0924
_cell_angle_gamma                   87.9467

loop_
_atom_site_label
_atom_site_type_symbol
_atom_site_fract_x
_atom_site_fract_y
_atom_site_fract_z
_atom_site_charge
  Ge     Ge        0.052090000000021    0.000000000000000    0.372269999999958  0.0000
  Ge     Ge        0.443830406862411    0.952061803117767    0.361792493823943  0.0000
  Ge     Ge        0.942246505565648    0.965336324897968    0.617621858916876  0.0000
  Ge     Ge        0.536714814925305    0.028114749685433    0.621077435408741  0.0000
  Ge     Ge        0.555558379705551    0.024158143221430    0.132412232978795  0.0000
  Ge     Ge        0.942804861819431    0.956026336661549    0.124097590536529  0.0000
  Ge     Ge        0.439503682125479    0.982841624200069    0.887331305853926  0.0000
  Ge     Ge        0.044037318299248    0.040356646888048    0.874798626055417  0.0000
  Ge     Ge        0.147814380787103    0.311917064100799    0.250467050291782  0.0000
  Ge     Ge        0.354485662444094    0.635153277222308    0.255821606682265  0.0000
  Ge     Ge        0.818496380794626    0.249960797891185    0.692042328226612  0.0000
  Ge     Ge        0.663881422041341    0.739356596103957    0.687919947774319  0.0000
  Ge     Ge        0.843628927901706    0.651215574656613    0.680676485863326  0.0000
  Ge     Ge        0.637565126040059    0.335878751366441    0.693864870111844  0.0000
  Ge     Ge        0.169936753546113    0.711860583852386    0.267996515909193  0.0000
  Ge     Ge        0.641056214838327    0.340065402763193    0.010191330110485  0.0000
  Ge     Ge        0.853640285890263    0.645389115702167    0.999607183747465  0.0000
  Ge     Ge        0.164831553425114    0.744585585762529    0.954292950355604  0.0000
  Ge     Ge        0.145809898942221    0.348898822147896    0.920068982980180  0.0000
  Ge     Ge        0.673270978428355    0.740412139621974    0.006168552705506  0.0000
  Ge     Ge        0.822395505301953    0.246040147370649    0.008930655612469  0.0000
  Si     Si        0.323021243010227    0.244351343594309    0.242744860101669  0.0000
  Si     Si        0.320335988790375    0.286302856273881    0.928669162554449  0.0000
  Si     Si        0.345863459908500    0.669116686729614    0.952817666543422  0.0000
  O1     O1        0.078765010910308    0.198597631963380    0.322010617662003  0.0000
  O1     O1        0.418265284451163    0.743980302844972    0.348102469932265  0.0000
  O1     O1        0.867610256458025    0.111266145167994    0.595317188326749  0.0000
  O1     O1        0.609022269310327    0.879224586841603    0.594196025094232  0.0000
  O1     O1        0.908262486612418    0.765407683473861    0.594685676243672  0.0000
  O1     O1        0.572543128155587    0.227657026826597    0.604119175152977  0.0000
  O1     O1        0.127674831306931    0.858282927413146    0.367838401468497  0.0000
  O3     O3        0.372752748835314    0.082555003462297    0.291373290992954  0.0000
  O1     O1        0.020574936973061    0.009186839732805    0.530600032369346  0.0000
  O1     O1        0.458912094866477    0.997534251760926    0.523665566786377  0.0000
  O1     O1        0.973718701431481    0.940912399446417    0.284023903532068  0.0000
  O1     O1        0.529175532900146    0.993062873072633    0.291408284056702  0.0000
  O1     O1        0.970645535595070    0.979299666838235    0.780494277670748  0.0000
  O1     O1        0.511882549114457    0.000519899144633    0.782588197939590  0.0000
  O1     O1        0.578243903588850    0.232517534951291    0.104059171859002  0.0000
  O1     O1        0.923159396613780    0.752162536103046    0.077884382886897  0.0000
  O3     O3        0.376136980979005    0.155839287850508    0.859000797444071  0.0000
  O1     O1        0.124423338848012    0.908432569313083    0.864777238122827  0.0000
  O3     O3        0.393147264651243    0.792968311463109    0.862391992002775  0.0000
  O1     O1        0.076699241857217    0.241103912172649    0.841250767465858  0.0000
  O1     O1        0.632562001048605    0.893935015439678    0.100144859221763  0.0000
  O1     O1        0.863806625994615    0.090096851896215    0.108024655239241  0.0000
  O1     O1        0.475588372080794    0.976836153781051    0.043024045819415  0.0000
  O1     O1        0.014603164569152    0.037158105364194    0.034269229245159  0.0000
  O1     O1        0.147917225551921    0.509888762480204    0.317473736728034  0.0000
  O3     O3        0.352149989279370    0.420476488764551    0.301563983479438  0.0000
  O1     O1        0.829960672769420    0.451724760580152    0.624365531058018  0.0000
  O1     O1        0.650490152139914    0.535853918926420    0.632142684343515  0.0000
  O3     O3        0.236869055960184    0.213572342589557    0.280429472198756  0.0000
  O1     O1        0.266426569974531    0.728450364864194    0.275031885327438  0.0000
  O1     O1        0.722729779418765    0.218439075688354    0.695913405188187  0.0000
  O1     O1        0.759560913447791    0.771777246177769    0.679965604695648  0.0000
  O1     O1        0.132564066223323    0.334857980855335    0.086007838629342  0.0000
  O3     O3        0.384785614891893    0.652562414716745    0.096066648383377  0.0000
  O1     O1        0.853706244817092    0.230796255614978    0.850638441971692  0.0000
  O1     O1        0.637742747729117    0.754068111728773    0.848895920606094  0.0000
  O1     O1        0.876258665799151    0.621237540922014    0.839111719670027  0.0000
  O1     O1        0.607012576154045    0.354133526406508    0.851865462576991  0.0000
  O1     O1        0.133245196256667    0.752626716876700    0.112555780985504  0.0000
  O2     O2        0.326719189713639    0.266227951772311    0.085661808116979  0.0000
  O1     O1        0.654759502638090    0.539747534856353    0.068188586947168  0.0000
  O1     O1        0.843141276720792    0.445256331184639    0.066019196201487  0.0000
  O2     O2        0.340439885736966    0.481923284963873    0.889714372339744  0.0000
  O1     O1        0.140793135987489    0.560041621286588    0.878022351782383  0.0000
  O1     O1        0.726138312109543    0.225595677567281    0.007966217394110  0.0000
  O1     O1        0.769433430473015    0.763605868663912    0.005968353428826  0.0000
  O3     O3        0.234514061889139    0.258511397122868    0.884252774259453  0.0000
  O3     O3        0.262144788351016    0.751890262752759    0.971120508056575  0.0000
