data_c00076.vasp
_audit_creation_method             Generated by GULP
_audit_author_name                 Salvador R. G. Balestra
_symmetry_space_group_name_H-M     'P 1             '
_symmetry_Int_Tables_number        1

loop_
_symmetry_equiv_pos_site_id
_symmetry_equiv_pos_as_xyz
_cell_length_a                       17.6055
_cell_length_b                        7.8638
_cell_length_c                       10.3283
_cell_angle_alpha                   90.1212
_cell_angle_beta                    90.9033
_cell_angle_gamma                   92.0587

loop_
_atom_site_label
_atom_site_type_symbol
_atom_site_fract_x
_atom_site_fract_y
_atom_site_fract_z
_atom_site_charge
  Ge     Ge        0.052090000000021    0.000000000000000    0.372269999999958  0.0000
  Ge     Ge        0.447001062384132    0.055443618532018    0.399992857766331  0.0000
  Ge     Ge        0.948391055526205    0.058696616340874    0.624370140294787  0.0000
  Ge     Ge        0.545088687277564    0.991879217361016    0.658559021891481  0.0000
  Ge     Ge        0.553436762475835    0.995575523651342    0.158491987914796  0.0000
  Ge     Ge        0.952900068931234    0.058899608656049    0.110135279895823  0.0000
  Ge     Ge        0.441250949635795    0.045452251664122    0.912690733875654  0.0000
  Ge     Ge        0.172770313168904    0.287638825573330    0.291023632651554  0.0000
  Ge     Ge        0.324987700582267    0.763917793848639    0.279005243722910  0.0000
  Ge     Ge        0.852081424019828    0.367433601105293    0.730421739277314  0.0000
  Ge     Ge        0.644832147805015    0.681427281749261    0.725422806816971  0.0000
  Ge     Ge        0.825217560903294    0.766907145166023    0.731366520541954  0.0000
  Ge     Ge        0.671086547360079    0.280634778885618    0.728587155671804  0.0000
  Ge     Ge        0.143709668828691    0.687827023787205    0.289798912012959  0.0000
  Ge     Ge        0.354030610491948    0.363512860246790    0.284855065704228  0.0000
  Ge     Ge        0.673457996921145    0.283424754680586    0.042951969199223  0.0000
  Ge     Ge        0.826036409566614    0.770429693392848    0.047213388158415  0.0000
  Ge     Ge        0.343691721377064    0.360987513021620    0.970997664514562  0.0000
  Ge     Ge        0.142804691901034    0.690670567105745    0.979157288012734  0.0000
  Ge     Ge        0.645021913557152    0.684499294709669    0.042024921106914  0.0000
  Ge     Ge        0.854359866983874    0.372666264556138    0.045395022189072  0.0000
  Si     Si        0.054168730942772    0.003750647185956    0.866105398809292  0.0000
  Si     Si        0.324154781124523    0.750381646345110    0.973425292033842  0.0000
  Si     Si        0.163491007186490    0.297157519468377    0.982670083368112  0.0000
  O1     O1        0.126361501377161    0.147164547070958    0.389569491458245  0.0000
  O1     O1        0.370463634215679    0.922693950068773    0.363865555766137  0.0000
  O1     O1        0.918777508463211    0.260936008840521    0.646119224255560  0.0000
  O1     O1        0.579024655040282    0.791603275345593    0.638613876671076  0.0000
  O1     O1        0.873900298648316    0.916597942151527    0.642987925666000  0.0000
  O1     O1        0.619228630774666    0.137412060731631    0.636146651586727  0.0000
  O1     O1        0.084634755558491    0.798092762237572    0.387561227001527  0.0000
  O1     O1        0.422148683646098    0.261344708078882    0.371977410688141  0.0000
  O1     O1        0.976964446391479    0.039419512266704    0.466311224744177  0.0000
  O1     O1        0.469027587991217    0.032150700290548    0.561824006142169  0.0000
  O1     O1        0.026463166297897    0.021849541239613    0.210563857978275  0.0000
  O1     O1        0.526568122471925    0.002294574735939    0.317685758573791  0.0000
  O3     O3        0.028821421607123    0.017355183514522    0.716988920069055  0.0000
  O1     O1        0.516254232216243    0.008064708563348    0.817572379581623  0.0000
  O1     O1        0.630125544284482    0.132385085333860    0.137282420642239  0.0000
  O1     O1        0.877102339633619    0.918047946429144    0.135868492873836  0.0000
  O1     O1        0.400036106791137    0.237340095214064    0.880182742407559  0.0000
  O3     O3        0.085475928661125    0.815410282683899    0.885418414047484  0.0000
  O3     O3        0.368637490953867    0.891165504531579    0.890579231036323  0.0000
  O2     O2        0.119190870429964    0.146780771807037    0.903040515068985  0.0000
  O1     O1        0.577635402455440    0.790772509260522    0.123778373278482  0.0000
  O1     O1        0.920552334453236    0.260938310999701    0.129298262448139  0.0000
  O1     O1        0.475320882956630    0.053337001266062    0.069631828340039  0.0000
  O3     O3        0.979828369666434    0.032527754857799    0.949736893609663  0.0000
  O1     O1        0.156542159246056    0.489554258758679    0.348567358245932  0.0000
  O1     O1        0.343596451826243    0.566342388506853    0.341566126827752  0.0000
  O1     O1        0.838989697614125    0.566470373284469    0.668871790062108  0.0000
  O1     O1        0.656684619851374    0.481679593758763    0.666853403613829  0.0000
  O1     O1        0.267719713388336    0.253134079344752    0.294374891511397  0.0000
  O1     O1        0.230016173773876    0.797901509427999    0.281922360257933  0.0000
  O1     O1        0.767041450160755    0.250262239846931    0.726491854358311  0.0000
  O1     O1        0.729376151661738    0.799498142117435    0.725687623147628  0.0000
  O3     O3        0.138523237706859    0.288659784810391    0.131596733617567  0.0000
  O3     O3        0.356570060805152    0.760151467425080    0.120468421298976  0.0000
  O1     O1        0.882827830746229    0.392166021480938    0.887507564487931  0.0000
  O1     O1        0.616412417105686    0.662011582458914    0.883456075894277  0.0000
  O1     O1        0.855765425783127    0.776537433837786    0.889327414623092  0.0000
  O1     O1        0.639919923997470    0.267076598068432    0.885863435348213  0.0000
  O1     O1        0.108424539458062    0.685628026228548    0.132513979087968  0.0000
  O1     O1        0.380103648233083    0.367445414480827    0.125625186704998  0.0000
  O1     O1        0.656937132129257    0.484029699673488    0.102337064109245  0.0000
  O1     O1        0.842200815976365    0.569829565685678    0.108791763427411  0.0000
  O3     O3        0.339008501960741    0.565608093773760    0.912237138936719  0.0000
  O3     O3        0.144013657262549    0.481193934174197    0.924382205059032  0.0000
  O1     O1        0.769476067749506    0.256062541385587    0.042648654492389  0.0000
  O1     O1        0.730132376430621    0.800370788772601    0.050556647377721  0.0000
  O3     O3        0.252786756593971    0.269246096783640    0.976054545882946  0.0000
  O3     O3        0.234321384659639    0.777305311304421    0.977045546440756  0.0000
