data_c00053.vasp
_audit_creation_method             Generated by GULP
_audit_author_name                 Salvador R. G. Balestra
_symmetry_space_group_name_H-M     'P 1             '
_symmetry_Int_Tables_number        1

loop_
_symmetry_equiv_pos_site_id
_symmetry_equiv_pos_as_xyz
_cell_length_a                       17.5975
_cell_length_b                        7.8824
_cell_length_c                       10.2422
_cell_angle_alpha                   89.6950
_cell_angle_beta                    90.2880
_cell_angle_gamma                   87.6897

loop_
_atom_site_label
_atom_site_type_symbol
_atom_site_fract_x
_atom_site_fract_y
_atom_site_fract_z
_atom_site_charge
  Ge     Ge        0.052090000000021    0.000000000000000    0.372269999999958  0.0000
  Ge     Ge        0.447197966710051    0.943904990563031    0.342780641283754  0.0000
  Ge     Ge        0.946900422015816    0.944109331282429    0.622147641690324  0.0000
  Ge     Ge        0.554132003697455    0.995106526776061    0.591938590928019  0.0000
  Ge     Ge        0.549814691343552    0.003451953491682    0.087450685236564  0.0000
  Ge     Ge        0.942286707979260    0.948310302759483    0.128307266960429  0.0000
  Ge     Ge        0.444495253804933    0.945725562595280    0.835649318120209  0.0000
  Ge     Ge        0.047722994035242    0.010835126416550    0.879325139381261  0.0000
  Ge     Ge        0.142521188835726    0.317352222544069    0.260542776031380  0.0000
  Ge     Ge        0.347737027896948    0.633966046437661    0.272828054227533  0.0000
  Ge     Ge        0.825687078985364    0.235324284009377    0.697826272972799  0.0000
  Ge     Ge        0.849684925277452    0.633533504275476    0.696890940444488  0.0000
  Ge     Ge        0.643464994164913    0.311609050762919    0.706131027874537  0.0000
  Ge     Ge        0.325449160256305    0.236440803133942    0.269852994816051  0.0000
  Ge     Ge        0.648183509543557    0.312351349885326    0.020980401750900  0.0000
  Ge     Ge        0.854685557733725    0.631571692330422    0.011379551034461  0.0000
  Ge     Ge        0.325015845871172    0.234883893302054    0.953620028316277  0.0000
  Ge     Ge        0.172833443673613    0.719547175856070    0.947928588504417  0.0000
  Ge     Ge        0.353616255817042    0.635065164927366    0.954570437547178  0.0000
  Ge     Ge        0.143019227218677    0.322379399622404    0.946350260926907  0.0000
  Ge     Ge        0.672497543708770    0.708848600268812    0.017798175494704  0.0000
  Si     Si        0.669878544276824    0.704260921382652    0.708672375735108  0.0000
  Si     Si        0.169315357556905    0.709303465523989    0.258764952336065  0.0000
  Si     Si        0.827719453687327    0.237813494944061    0.007513438157208  0.0000
  O1     O1        0.080797015579693    0.203669884720033    0.352144908622108  0.0000
  O1     O1        0.408753795291628    0.748941183060217    0.364096917824277  0.0000
  O1     O1        0.874466362085175    0.095266056280182    0.600649163215766  0.0000
  O3     O3        0.628460758109537    0.851007082699080    0.623379638473937  0.0000
  O1     O1        0.907884156511058    0.750003488064456    0.601144747806971  0.0000
  O1     O1        0.580522170241934    0.199885575618731    0.615615844817206  0.0000
  O3     O3        0.125153160604490    0.854062472455653    0.340234619450580  0.0000
  O1     O1        0.374999384876395    0.093855873693889    0.367108894986458  0.0000
  O1     O1        0.026439948514311    0.974973207171450    0.533520786598120  0.0000
  O1     O1        0.527693957129078    0.974053437884286    0.430714103948205  0.0000
  O1     O1        0.969609431685642    0.963411843696964    0.288838066913967  0.0000
  O1     O1        0.473534701917027    0.962598360744862    0.180451894213727  0.0000
  O1     O1        0.972679378033911    0.963768109354354    0.784689393828049  0.0000
  O1     O1        0.473067582586428    0.951611050421784    0.675676478807123  0.0000
  O1     O1        0.589734154743597    0.196379374928790    0.115657647027585  0.0000
  O1     O1        0.917016466358491    0.742234933383501    0.102826118668528  0.0000
  O1     O1        0.367315494592181    0.082449025353505    0.857980980094537  0.0000
  O1     O1        0.123417492904538    0.867038990626703    0.857757433866082  0.0000
  O1     O1        0.421222676490642    0.740936679953418    0.871953816469443  0.0000
  O1     O1        0.080928566260415    0.210720029284841    0.853882370802630  0.0000
  O1     O1        0.622842198877416    0.853325529963630    0.108466594731139  0.0000
  O3     O3        0.867286524776572    0.091242175277066    0.095133297208561  0.0000
  O1     O1        0.520656720905242    0.005308210075969    0.926632443077095  0.0000
  O1     O1        0.020767305033836    0.996504518108854    0.040546931413291  0.0000
  O3     O3        0.153430865186884    0.522939766236302    0.316919598870069  0.0000
  O1     O1        0.340589666845039    0.434723339151484    0.333847662403143  0.0000
  O1     O1        0.843052110822936    0.434697021010260    0.637191678501884  0.0000
  O3     O3        0.653226535162871    0.518867134170773    0.651080704945466  0.0000
  O1     O1        0.229485317742411    0.209629144233343    0.267151273643407  0.0000
  O3     O3        0.259005547530211    0.739563718728727    0.264837780613035  0.0000
  O1     O1        0.730392771026693    0.205117226309693    0.693849278997917  0.0000
  O3     O3        0.759727477478388    0.731681724256332    0.709126473940060  0.0000
  O1     O1        0.109081594442875    0.330455176881687    0.104052734042496  0.0000
  O1     O1        0.380486119220097    0.618196316529586    0.115486116837807  0.0000
  O3     O3        0.857962437143116    0.226863640846221    0.859223832339224  0.0000
  O3     O3        0.639861128090949    0.714446951542035    0.856838482562282  0.0000
  O1     O1        0.885797872658650    0.628660236003251    0.853415990105510  0.0000
  O1     O1        0.612781610938133    0.319171725682920    0.863736450403306  0.0000
  O3     O3        0.141695406385918    0.717568531959215    0.108972301391875  0.0000
  O1     O1        0.358558029235436    0.221602845790538    0.111774746643194  0.0000
  O1     O1        0.655053860455133    0.510981597537671    0.081329002779566  0.0000
  O3     O3        0.845560864128196    0.423498408532445    0.063959175191665  0.0000
  O1     O1        0.342805267605935    0.435127787787565    0.894335257172873  0.0000
  O1     O1        0.155330070075694    0.520672375030837    0.886060780773557  0.0000
  O3     O3        0.737787745739507    0.213488289926169    0.006562163291087  0.0000
  O1     O1        0.767747859493654    0.738015704347440    0.022321606153285  0.0000
  O1     O1        0.228965585969191    0.209888615574628    0.955059698384122  0.0000
  O1     O1        0.268156916574768    0.750040492068489    0.943370204510696  0.0000
