data_c00077.vasp
_audit_creation_method             Generated by GULP
_audit_author_name                 Salvador R. G. Balestra
_symmetry_space_group_name_H-M     'P 1             '
_symmetry_Int_Tables_number        1

loop_
_symmetry_equiv_pos_site_id
_symmetry_equiv_pos_as_xyz
_cell_length_a                       17.6147
_cell_length_b                        7.8287
_cell_length_c                       10.3577
_cell_angle_alpha                   89.5313
_cell_angle_beta                    90.4335
_cell_angle_gamma                   91.2486

loop_
_atom_site_label
_atom_site_type_symbol
_atom_site_fract_x
_atom_site_fract_y
_atom_site_fract_z
_atom_site_charge
  Ge     Ge        0.052090000000021    0.000000000000000    0.372269999999958  0.0000
  Ge     Ge        0.447735243232319    0.052354551385126    0.368834518528231  0.0000
  Ge     Ge        0.954057849567154    0.044447779404926    0.632061869209726  0.0000
  Ge     Ge        0.550286054234866    0.993710480242238    0.623143368810144  0.0000
  Ge     Ge        0.554294315379467    0.989230999497553    0.125450455843778  0.0000
  Ge     Ge        0.941971406780370    0.050620038101082    0.127914334765123  0.0000
  Ge     Ge        0.447596919399781    0.058037783090674    0.876389169704603  0.0000
  Ge     Ge        0.173474301622998    0.285234931632382    0.262239766413718  0.0000
  Ge     Ge        0.324686095033548    0.768457486702014    0.258100348045512  0.0000
  Ge     Ge        0.854738953882941    0.359059155811517    0.702051533789278  0.0000
  Ge     Ge        0.648591576173003    0.678180093804452    0.693992972310595  0.0000
  Ge     Ge        0.828382819278010    0.764274213689599    0.702400463052088  0.0000
  Ge     Ge        0.675479182543345    0.274850436117104    0.696606493497480  0.0000
  Ge     Ge        0.145025390898024    0.686589692977340    0.257889266247651  0.0000
  Ge     Ge        0.353713352519110    0.366107722390895    0.251441133847241  0.0000
  Ge     Ge        0.674199443761433    0.274015864736264    0.010229592880530  0.0000
  Ge     Ge        0.825860572611905    0.755458824272386    0.015409515375898  0.0000
  Ge     Ge        0.345399870986602    0.368087762512093    0.934425186440787  0.0000
  Ge     Ge        0.324734520082075    0.766987132519634    0.945483637133229  0.0000
  Ge     Ge        0.163844170259223    0.294473646220816    0.949227387726513  0.0000
  Ge     Ge        0.644756267972680    0.674522798926840    0.009609841970143  0.0000
  Si     Si        0.049627676471539    0.996125487647039    0.889430151586142  0.0000
  Si     Si        0.147001810911331    0.688369650649512    0.951706048135096  0.0000
  Si     Si        0.851055843196063    0.358764678424361    0.008512473803499  0.0000
  O1     O1        0.129203829511429    0.134179640272209    0.356100662534643  0.0000
  O1     O1        0.370881614407490    0.917920765941040    0.350005972883283  0.0000
  O1     O1        0.922552759270719    0.250340658048631    0.621112431977779  0.0000
  O1     O1        0.583440277584705    0.790669077875318    0.605415765025182  0.0000
  O1     O1        0.878487227222761    0.905095589750146    0.607671575321791  0.0000
  O1     O1        0.624833505117293    0.136488384260753    0.601173108383669  0.0000
  O1     O1        0.075127227330243    0.794498287056629    0.333007311781033  0.0000
  O1     O1        0.423652445720384    0.258038643425631    0.331032137501987  0.0000
  O1     O1        0.027263422875895    0.006397822012188    0.532735529881524  0.0000
  O1     O1        0.474119720920533    0.040384513730618    0.529286038696602  0.0000
  O1     O1        0.974250744467161    0.061313802440281    0.284237272111874  0.0000
  O1     O1        0.525858666646307    0.992021248649530    0.283623503276228  0.0000
  O3     O3        0.980197370855276    0.008312858954838    0.792437279919359  0.0000
  O1     O1        0.522309302127591    0.011551789212681    0.782680008370138  0.0000
  O1     O1        0.633680952481659    0.118013520786784    0.103981229845245  0.0000
  O1     O1        0.872537456809800    0.894984021731642    0.116223004764351  0.0000
  O1     O1        0.409852248548482    0.256163720640075    0.848640236202654  0.0000
  O2     O2        0.089523997528993    0.811608175025948    0.874401246549503  0.0000
  O1     O1        0.372328633626229    0.915358753274601    0.855455163304922  0.0000
  O3     O3        0.109698881632966    0.150370765754334    0.860573857680403  0.0000
  O1     O1        0.576086409721516    0.782334977687344    0.088761683048804  0.0000
  O3     O3        0.910999718162636    0.253390322069678    0.091418490499405  0.0000
  O1     O1        0.479038373345591    0.058001731705647    0.034744461254282  0.0000
  O3     O3        0.020144570422650    0.004318121200044    0.035736672353435  0.0000
  O1     O1        0.157337130058954    0.486554343560757    0.321669037265220  0.0000
  O1     O1        0.341977658585963    0.565276723179937    0.315085229009207  0.0000
  O1     O1        0.842929310140025    0.560711481627331    0.644403421073981  0.0000
  O1     O1        0.662325084512725    0.478816933940677    0.635609705693546  0.0000
  O1     O1        0.269187331843907    0.251557233547145    0.260935919475666  0.0000
  O1     O1        0.228906147351962    0.802338133176079    0.265448631751587  0.0000
  O1     O1        0.771188009918842    0.240267564433230    0.693984376031713  0.0000
  O1     O1        0.732455992823128    0.796711744542616    0.696531289900332  0.0000
  O1     O1        0.138081335619055    0.270934603897250    0.107265377590742  0.0000
  O1     O1        0.357352726355092    0.785043872341273    0.102136942339655  0.0000
  O3     O3        0.880774303853759    0.380727495320796    0.863142150496198  0.0000
  O1     O1        0.618418621787579    0.654796089915791    0.850622982257484  0.0000
  O1     O1        0.857422808220065    0.783531701145279    0.861041492120608  0.0000
  O1     O1        0.642831009997924    0.258062420840093    0.853067563623290  0.0000
  O3     O3        0.120456023061747    0.653611699112096    0.097553419315644  0.0000
  O1     O1        0.375814957382802    0.391323725473116    0.091922958457212  0.0000
  O1     O1        0.652948425709562    0.471108832628565    0.070614467227325  0.0000
  O3     O3        0.839112298920633    0.545194282305248    0.066964408660635  0.0000
  O1     O1        0.338979269338032    0.571560612816511    0.876100586944646  0.0000
  O3     O3        0.151864155063205    0.502345809940443    0.888909111327114  0.0000
  O3     O3        0.771746407596115    0.251730454777008    0.006744643164668  0.0000
  O1     O1        0.729848018533544    0.786260023371720    0.020311341923295  0.0000
  O1     O1        0.259092273336934    0.259246133456601    0.934723081085898  0.0000
  O3     O3        0.227458550099374    0.789609506752118    0.954249518017118  0.0000
