data_c00005.vasp
_audit_creation_method             Generated by GULP
_audit_author_name                 Salvador R. G. Balestra
_symmetry_space_group_name_H-M     'P 1             '
_symmetry_Int_Tables_number        1

loop_
_symmetry_equiv_pos_site_id
_symmetry_equiv_pos_as_xyz
_cell_length_a                       17.5388
_cell_length_b                        7.9279
_cell_length_c                       10.4457
_cell_angle_alpha                   88.5681
_cell_angle_beta                    89.7992
_cell_angle_gamma                   90.9992

loop_
_atom_site_label
_atom_site_type_symbol
_atom_site_fract_x
_atom_site_fract_y
_atom_site_fract_z
_atom_site_charge
  Ge     Ge        0.052090000000021    0.000000000000000    0.372269999999958  0.0000
  Ge     Ge        0.452880743103661    0.032692300282271    0.377480705699331  0.0000
  Ge     Ge        0.952846629642650    0.029131281248980    0.630461909382487  0.0000
  Ge     Ge        0.553022534498051    0.981034178388669    0.633408453450501  0.0000
  Ge     Ge        0.552436302022121    0.970114889468561    0.120622577691945  0.0000
  Ge     Ge        0.952497929435540    0.023471393283232    0.110581252880518  0.0000
  Ge     Ge        0.443673445440858    0.037685840870165    0.874718113682568  0.0000
  Ge     Ge        0.067386008713449    0.012068868156155    0.865498752172368  0.0000
  Ge     Ge        0.170253230200043    0.289280194972295    0.286432213362311  0.0000
  Ge     Ge        0.335052270951699    0.747543449698033    0.298029184438413  0.0000
  Ge     Ge        0.856305159186616    0.338272770604233    0.743748556147787  0.0000
  Ge     Ge        0.649490441922191    0.667301214818047    0.746218577386613  0.0000
  Ge     Ge        0.831879142688458    0.738620923653779    0.741664173048653  0.0000
  Ge     Ge        0.674625692292973    0.268174938851399    0.742505505739477  0.0000
  Ge     Ge        0.153759868644372    0.699353495427348    0.293482880286575  0.0000
  Ge     Ge        0.352653014160518    0.341663358019754    0.294610664664077  0.0000
  Ge     Ge        0.674194121281340    0.261770652534321    0.052630272234377  0.0000
  Ge     Ge        0.834219999405756    0.725755509094382    0.052199806739320  0.0000
  Ge     Ge        0.357352620112879    0.361803533474666    0.983007817078703  0.0000
  Ge     Ge        0.168859926359343    0.321540360460523    0.975339838195496  0.0000
  Ge     Ge        0.651438684380118    0.657040758371867    0.060385602628803  0.0000
  Si     Si        0.159840412784878    0.707965179263526    0.997057239139891  0.0000
  Si     Si        0.341660565383915    0.745641459269409    0.001101549636229  0.0000
  Si     Si        0.852980352329238    0.334444953275182    0.047708963820741  0.0000
  O1     O1        0.120274485702364    0.156938995899086    0.388130569449892  0.0000
  O1     O1        0.385247819373467    0.874448436161507    0.397967441590841  0.0000
  O1     O1        0.925673671404057    0.229217203670309    0.668543162525782  0.0000
  O1     O1        0.582279133701999    0.779041664085963    0.663429494325981  0.0000
  O1     O1        0.879090546118600    0.887473454902762    0.649289289434665  0.0000
  O1     O1        0.626317494347348    0.121999039711203    0.655918682563618  0.0000
  O1     O1        0.091944526650340    0.804015633071989    0.389113780381027  0.0000
  O1     O1        0.412071059665404    0.226663240027245    0.391746611263732  0.0000
  O1     O1        0.976335223271793    0.026020444987114    0.470053981850388  0.0000
  O1     O1        0.529021031330376    0.002115633172380    0.473907816044425  0.0000
  O1     O1        0.025983204528088    0.017484949269356    0.213410902942694  0.0000
  O1     O1        0.480914586553914    0.022453841325516    0.218906936476961  0.0000
  O1     O1        0.034670618072202    0.980683709469193    0.712980051663162  0.0000
  O1     O1        0.471200417704296    0.021553607014461    0.718014689914015  0.0000
  O1     O1        0.629185594414630    0.107764287308316    0.140235882010741  0.0000
  O1     O1        0.887187638955799    0.861902709212265    0.141234008169653  0.0000
  O1     O1        0.416516792494870    0.242297441164446    0.893614051588136  0.0000
  O3     O3        0.131384536745932    0.854345183592405    0.904101187168015  0.0000
  O3     O3        0.365723082401697    0.904867448224686    0.913183993274495  0.0000
  O1     O1        0.118514580104120    0.197305353901599    0.873306154936318  0.0000
  O1     O1        0.587257469186069    0.770415288707282    0.145315266006775  0.0000
  O3     O3        0.909774776877594    0.218560897953988    0.127590158901487  0.0000
  O1     O1        0.521386736939384    0.984144352021074    0.963826272254987  0.0000
  O1     O1        0.986217853581487    0.007539926965757    0.956566520411848  0.0000
  O1     O1        0.160121815857690    0.492771332419170    0.338385043955944  0.0000
  O1     O1        0.343845848022505    0.540916803293122    0.349752588991453  0.0000
  O1     O1        0.847464943977861    0.540025596006493    0.683661242028193  0.0000
  O1     O1        0.659915863829466    0.470493054456115    0.684362749076984  0.0000
  O1     O1        0.264982775600065    0.241424386942715    0.289599068821237  0.0000
  O1     O1        0.241125213616590    0.800114195732690    0.303568945164720  0.0000
  O1     O1        0.770784776066672    0.230618903700366    0.733952240653228  0.0000
  O1     O1        0.735796686212372    0.774509589801366    0.739459202626946  0.0000
  O1     O1        0.140183265324891    0.276399663439812    0.129758438952941  0.0000
  O3     O3        0.374539901290424    0.767467181812399    0.143617353701854  0.0000
  O3     O3        0.882434434732536    0.360019321433714    0.902316379177271  0.0000
  O1     O1        0.622694922115972    0.644752381764429    0.903530375718340  0.0000
  O1     O1        0.864038819406060    0.752139537390499    0.896168319037084  0.0000
  O1     O1        0.641726674598325    0.255009703562334    0.897371831359255  0.0000
  O3     O3        0.120413209927156    0.714963649688088    0.135596467311381  0.0000
  O1     O1        0.385707767924079    0.345999445376994    0.139200351740866  0.0000
  O1     O1        0.657074736952252    0.454616337698421    0.118934106675530  0.0000
  O3     O3        0.845399165151434    0.517744892330826    0.107331211883573  0.0000
  O3     O3        0.369245283858834    0.574362538021948    0.937972950352330  0.0000
  O3     O3        0.145207206017618    0.528227509230542    0.934800455739836  0.0000
  O3     O3        0.771642761736695    0.236485298933408    0.043362489264235  0.0000
  O1     O1        0.738540300224232    0.761850543140232    0.062286340519096  0.0000
  O1     O1        0.265108035274430    0.293329828650325    0.961206723294050  0.0000
  O2     O2        0.250742193264108    0.721396939315133    0.026805294073819  0.0000
