data_c00081.vasp
_audit_creation_method             Generated by GULP
_audit_author_name                 Salvador R. G. Balestra
_symmetry_space_group_name_H-M     'P 1             '
_symmetry_Int_Tables_number        1

loop_
_symmetry_equiv_pos_site_id
_symmetry_equiv_pos_as_xyz
_cell_length_a                       17.6303
_cell_length_b                        7.8198
_cell_length_c                       10.3787
_cell_angle_alpha                   89.9658
_cell_angle_beta                    90.3371
_cell_angle_gamma                   91.0681

loop_
_atom_site_label
_atom_site_type_symbol
_atom_site_fract_x
_atom_site_fract_y
_atom_site_fract_z
_atom_site_charge
  Ge     Ge        0.052090000000021    0.000000000000000    0.372269999999958  0.0000
  Ge     Ge        0.449515840722893    0.049887993694324    0.332487917450554  0.0000
  Ge     Ge        0.951962956676315    0.048525881487462    0.630795260000172  0.0000
  Ge     Ge        0.550175342246382    0.998872496977322    0.589865537479416  0.0000
  Ge     Ge        0.550140885219045    0.980858781867919    0.077358889707419  0.0000
  Ge     Ge        0.945322823153830    0.043544887491505    0.123185533307751  0.0000
  Ge     Ge        0.440412677916922    0.039809759238331    0.830929912113187  0.0000
  Ge     Ge        0.173239833210667    0.283172490001175    0.265982559795821  0.0000
  Ge     Ge        0.325357542050587    0.769796902225234    0.251698121545253  0.0000
  Ge     Ge        0.852956714277466    0.363852630807443    0.697314194618282  0.0000
  Ge     Ge        0.646194852759501    0.685141516525275    0.707331678582706  0.0000
  Ge     Ge        0.826309397503996    0.768384196906835    0.705562250037081  0.0000
  Ge     Ge        0.673937692594755    0.282267788046634    0.696081576950420  0.0000
  Ge     Ge        0.145484821141097    0.685004540306433    0.253846039693176  0.0000
  Ge     Ge        0.352032325742436    0.363622734862998    0.260284891830928  0.0000
  Ge     Ge        0.675361829672231    0.266476524678465    0.009197491278817  0.0000
  Ge     Ge        0.828701532171773    0.747516153780164    0.017591900276533  0.0000
  Ge     Ge        0.144304430567077    0.668932583033593    0.940462756202093  0.0000
  Ge     Ge        0.325399147946807    0.744068400638804    0.940770578774664  0.0000
  Ge     Ge        0.167852632339871    0.269966724387310    0.953761057914780  0.0000
  Ge     Ge        0.648911513965600    0.665276060639013    0.022646484043802  0.0000
  Si     Si        0.050115755825529    0.982274368207668    0.882591607809670  0.0000
  Si     Si        0.345951512676328    0.344965176192422    0.954098257835969  0.0000
  Si     Si        0.851579157803225    0.350093505178415    0.004330723912538  0.0000
  O1     O1        0.127916704267784    0.138435614027987    0.362794599823837  0.0000
  O1     O1        0.373276257793226    0.910717640328040    0.348775205340786  0.0000
  O1     O1        0.920896739087128    0.254653144939570    0.615743468144367  0.0000
  O1     O1        0.576597398137231    0.795488151793062    0.629655800892289  0.0000
  O1     O1        0.875324837546756    0.911539990816458    0.612293548540120  0.0000
  O1     O1        0.625585368821890    0.138225292478226    0.601923601907694  0.0000
  O1     O1        0.077540465078535    0.795844891359424    0.333250749342997  0.0000
  O1     O1        0.418906609048365    0.256480763586432    0.347320144586629  0.0000
  O1     O1        0.023828598790340    0.001495049768926    0.530937867225506  0.0000
  O1     O1        0.523322567102796    0.001025290490839    0.429395143071944  0.0000
  O1     O1        0.976946770039318    0.062997123210635    0.279064404959989  0.0000
  O1     O1        0.477071223246652    0.030192793370917    0.173435845427690  0.0000
  O3     O3        0.981405619765056    0.026895416496101    0.790567619438032  0.0000
  O1     O1        0.471795245362923    0.059054382682097    0.674846767171337  0.0000
  O1     O1        0.628259855040700    0.115826708489382    0.096763785944519  0.0000
  O1     O1        0.877155684293360    0.884799577403014    0.117779565338964  0.0000
  O3     O3        0.405264249511174    0.236754986805992    0.874011975528126  0.0000
  O3     O3        0.079648021610774    0.791507210199279    0.856664311371289  0.0000
  O1     O1        0.373036332821263    0.878744483322453    0.838761238396277  0.0000
  O3     O3        0.121025751052532    0.114386638224048    0.865353513918955  0.0000
  O1     O1        0.582467326901807    0.777427597836666    0.104944021521537  0.0000
  O3     O3        0.913615646060878    0.243854137882060    0.081028863587140  0.0000
  O1     O1        0.519331189463198    0.992273773198460    0.919529507429770  0.0000
  O3     O3        0.022642520839710    0.990928029264751    0.030684267649883  0.0000
  O1     O1        0.159846958303338    0.488211143406243    0.321669694471559  0.0000
  O1     O1        0.341032783271615    0.567008401964888    0.312575968440347  0.0000
  O1     O1        0.841581496218756    0.566741517563839    0.642774439556724  0.0000
  O1     O1        0.659093919447667    0.487021462709367    0.640812311416609  0.0000
  O1     O1        0.268639236779033    0.246809816349931    0.268317614415187  0.0000
  O1     O1        0.229462221882871    0.802593919749383    0.252361565184548  0.0000
  O1     O1        0.769545750070979    0.246986961627781    0.688681810103785  0.0000
  O1     O1        0.730384840582160    0.801878794112339    0.702911798418048  0.0000
  O1     O1        0.138664234528389    0.261614043953071    0.110997551433356  0.0000
  O1     O1        0.357856785449063    0.780550937863206    0.094946557059046  0.0000
  O3     O3        0.878177625476914    0.381722053348998    0.858784989586594  0.0000
  O1     O1        0.621130660632788    0.648632014733160    0.863705637440325  0.0000
  O1     O1        0.858399680467151    0.781335303081617    0.862619342708396  0.0000
  O1     O1        0.643377849974806    0.258661009577092    0.852352555635491  0.0000
  O1     O1        0.117614469918635    0.645966868990127    0.098258532407897  0.0000
  O3     O3        0.376876489778764    0.372741536151002    0.098454583714025  0.0000
  O1     O1        0.658116271739667    0.462207843928179    0.079009958673939  0.0000
  O3     O3        0.840519961738101    0.535905128175342    0.066531647991751  0.0000
  O3     O3        0.336021924063636    0.532213543953503    0.893179459061726  0.0000
  O1     O1        0.149534157524381    0.464768723861183    0.882770638737858  0.0000
  O3     O3        0.772855176034064    0.240538397378249    0.005828752315320  0.0000
  O1     O1        0.733225043023624    0.780534108777733    0.025960575384410  0.0000
  O3     O3        0.265367782214354    0.242965139348213    0.955202944577885  0.0000
  O1     O1        0.229854856508518    0.777563831152890    0.936154771638646  0.0000
