data_c00091.vasp
_audit_creation_method             Generated by GULP
_audit_author_name                 Salvador R. G. Balestra
_symmetry_space_group_name_H-M     'P 1             '
_symmetry_Int_Tables_number        1

loop_
_symmetry_equiv_pos_site_id
_symmetry_equiv_pos_as_xyz
_cell_length_a                       17.8262
_cell_length_b                        7.8640
_cell_length_c                       10.4375
_cell_angle_alpha                   88.6970
_cell_angle_beta                    90.7620
_cell_angle_gamma                   89.0387

loop_
_atom_site_label
_atom_site_type_symbol
_atom_site_fract_x
_atom_site_fract_y
_atom_site_fract_z
_atom_site_charge
  Ge     Ge        0.052090000000021    0.000000000000000    0.372269999999958  0.0000
  Ge     Ge        0.444466567101768    0.016094858816642    0.392709216019999  0.0000
  Ge     Ge        0.947942324828510    0.992903335294570    0.626025721194340  0.0000
  Ge     Ge        0.546286639034957    0.038454101437586    0.649857462010795  0.0000
  Ge     Ge        0.553140670376111    0.035143065627165    0.153260561661221  0.0000
  Ge     Ge        0.949492817554223    0.998035840796143    0.112038255820190  0.0000
  Ge     Ge        0.443361231781066    0.031627597123427    0.904610416596433  0.0000
  Ge     Ge        0.168495181939950    0.281890313379265    0.287194708602491  0.0000
  Ge     Ge        0.330865915310851    0.726185650004046    0.285719714996820  0.0000
  Ge     Ge        0.825972827029628    0.280013234868893    0.734616871814095  0.0000
  Ge     Ge        0.669392541955704    0.752804189346136    0.721535338549358  0.0000
  Ge     Ge        0.848661337426469    0.683507940471721    0.724632240942463  0.0000
  Ge     Ge        0.646940566373827    0.346501746906241    0.728931207760400  0.0000
  Ge     Ge        0.151949135881265    0.687389807530252    0.296474073779219  0.0000
  Ge     Ge        0.645825022138698    0.349905580842005    0.041822999906765  0.0000
  Ge     Ge        0.851549236430023    0.683776129212037    0.037124231396852  0.0000
  Ge     Ge        0.339442451559511    0.346871607056413    0.965089485090634  0.0000
  Ge     Ge        0.324817926673532    0.749180538179407    0.976866942232782  0.0000
  Ge     Ge        0.159131924024746    0.309312509430992    0.976215961384316  0.0000
  Ge     Ge        0.671964279821549    0.756019640662458    0.033049600595834  0.0000
  Ge     Ge        0.825546697723587    0.282705211737291    0.047228400622154  0.0000
  Si     Si        0.051711085212790    0.020439800611715    0.871367057961099  0.0000
  Si     Si        0.343490601162798    0.325820972038456    0.272089703312167  0.0000
  Si     Si        0.147007153901327    0.709910229426239    0.992065664177086  0.0000
  O1     O1        0.124014883812579    0.142625799368358    0.385839983524773  0.0000
  O1     O1        0.385692302537419    0.847320175676164    0.381737041527048  0.0000
  O1     O1        0.876468255256162    0.135284728644588    0.650421312438442  0.0000
  O1     O1        0.616461393353434    0.889560394727690    0.626362395327897  0.0000
  O1     O1        0.913235579715393    0.792021603105533    0.635810925997816  0.0000
  O1     O1        0.584135238311668    0.237215942947900    0.638139109813959  0.0000
  O1     O1        0.090233621820294    0.798504989247572    0.387871779799766  0.0000
  O3     O3        0.403978220988854    0.209903157101224    0.347879482088387  0.0000
  O1     O1        0.979916342716009    0.031044762803598    0.473319046022963  0.0000
  O1     O1        0.470099959911247    0.022552604779441    0.551583424222813  0.0000
  O1     O1        0.020572407203713    0.030993937939541    0.216335060161440  0.0000
  O1     O1        0.525637336118180    0.995822310917601    0.307975965567109  0.0000
  O3     O3        0.026186099647479    0.012927335577980    0.724380779833959  0.0000
  O1     O1        0.515846987382901    0.001544695081130    0.804612236032331  0.0000
  O1     O1        0.581235163997844    0.241863516920304    0.130082008353530  0.0000
  O1     O1        0.915431346921068    0.795664776249339    0.123991560923234  0.0000
  O1     O1        0.404014952449807    0.232214882007143    0.883427557476157  0.0000
  O2     O2        0.091872523859743    0.842096509196852    0.915968550643246  0.0000
  O1     O1        0.369629077030094    0.893916827032093    0.884105548413118  0.0000
  O3     O3        0.106040765609014    0.180460305159258    0.881325549341896  0.0000
  O1     O1        0.628342422921090    0.903482317255229    0.123980582821655  0.0000
  O1     O1        0.875627451080052    0.137334634543604    0.137540977427391  0.0000
  O1     O1        0.476572632137553    0.995528902920579    0.058296991886620  0.0000
  O3     O3        0.978461108505486    0.043931035253128    0.956432998210209  0.0000
  O1     O1        0.156656119999533    0.481197961646105    0.348795674778175  0.0000
  O3     O3        0.337155054693633    0.511852781062407    0.331648674836579  0.0000
  O1     O1        0.837863115818705    0.482011122731424    0.670041564914098  0.0000
  O1     O1        0.657408412489250    0.548118434488631    0.669444059175975  0.0000
  O3     O3        0.263441745174227    0.233790651984545    0.278147118711648  0.0000
  O1     O1        0.238065389064803    0.781869797810457    0.301126425546638  0.0000
  O1     O1        0.731814427074794    0.237450288475994    0.729836879430078  0.0000
  O1     O1        0.763617843879870    0.792256178337192    0.716878931396691  0.0000
  O1     O1        0.133812555205408    0.280336147646856    0.132313406991447  0.0000
  O1     O1        0.359779336224838    0.754263994555449    0.131285818651895  0.0000
  O1     O1        0.855166404810959    0.279717628662508    0.891049952653217  0.0000
  O1     O1        0.639633793133196    0.765981640965088    0.877316371036438  0.0000
  O1     O1        0.880297514296063    0.674778783753689    0.880819439726713  0.0000
  O1     O1        0.615865845236882    0.353073210090804    0.884288429620276  0.0000
  O3     O3        0.120032739066063    0.691998822901964    0.137605062680940  0.0000
  O3     O3        0.367498938323938    0.346772043507893    0.125146376098069  0.0000
  O1     O1        0.655667472471656    0.553435140696956    0.093121856245417  0.0000
  O1     O1        0.840955557776523    0.485089357135371    0.102351620317105  0.0000
  O1     O1        0.337840014846087    0.552938015845742    0.911015660363960  0.0000
  O3     O3        0.146937426608873    0.523916019342103    0.931377228430419  0.0000
  O1     O1        0.731388470091866    0.244819288056492    0.051482914585017  0.0000
  O1     O1        0.766468127340235    0.791371394431791    0.033767002979561  0.0000
  O1     O1        0.251936483816152    0.259721040471631    0.955135766331029  0.0000
  O3     O3        0.229476702922838    0.788276309712188    0.989491705948014  0.0000
