data_c00067.vasp
_audit_creation_method             Generated by GULP
_audit_author_name                 Salvador R. G. Balestra
_symmetry_space_group_name_H-M     'P 1             '
_symmetry_Int_Tables_number        1

loop_
_symmetry_equiv_pos_site_id
_symmetry_equiv_pos_as_xyz
_cell_length_a                       17.6219
_cell_length_b                        7.8514
_cell_length_c                       10.2281
_cell_angle_alpha                   88.3904
_cell_angle_beta                    90.4927
_cell_angle_gamma                   88.5903

loop_
_atom_site_label
_atom_site_type_symbol
_atom_site_fract_x
_atom_site_fract_y
_atom_site_fract_z
_atom_site_charge
  Ge     Ge        0.052090000000021    0.000000000000000    0.372269999999958  0.0000
  Ge     Ge        0.451096071095445    0.943469669687148    0.375356035917600  0.0000
  Ge     Ge        0.941067121800609    0.971335952694808    0.616038517051207  0.0000
  Ge     Ge        0.555406388697246    0.011633045253991    0.624866530573188  0.0000
  Ge     Ge        0.550288597576434    0.004204559185048    0.116910233361085  0.0000
  Ge     Ge        0.954973742656599    0.942874269783254    0.110666173457578  0.0000
  Ge     Ge        0.442948097499672    0.959644312807737    0.865496591521701  0.0000
  Ge     Ge        0.057085230609863    0.017846623865717    0.856075160841433  0.0000
  Ge     Ge        0.148734096725702    0.314669059386358    0.294912055868466  0.0000
  Ge     Ge        0.353198876809040    0.635542464406190    0.299463845849875  0.0000
  Ge     Ge        0.827433980483003    0.266746528011101    0.724157754195330  0.0000
  Ge     Ge        0.643258540923450    0.334181161414256    0.732654022772034  0.0000
  Ge     Ge        0.174118680772054    0.718992022460632    0.296310332966439  0.0000
  Ge     Ge        0.328989198275468    0.230718947397328    0.294983364124383  0.0000
  Ge     Ge        0.650140964720436    0.314576415158726    0.048915867830540  0.0000
  Ge     Ge        0.852897621747043    0.636891115534107    0.050495321259993  0.0000
  Ge     Ge        0.328363211294691    0.252101102474459    0.979707438987407  0.0000
  Ge     Ge        0.175871206249155    0.730063687618765    0.978817263444591  0.0000
  Ge     Ge        0.146055895804808    0.329889844507454    0.977374469682042  0.0000
  Ge     Ge        0.674995259063679    0.717090776303461    0.051530200720163  0.0000
  Ge     Ge        0.830200947884386    0.232496849353225    0.039125354085134  0.0000
  Si     Si        0.670745561484499    0.724029820364914    0.741394846601498  0.0000
  Si     Si        0.847722756550317    0.657254958644462    0.739035139945026  0.0000
  Si     Si        0.353454456685868    0.647908906180306    0.989001286114494  0.0000
  O1     O1        0.086832434565030    0.200435081800961    0.389743248508679  0.0000
  O1     O1        0.417677976001426    0.740461246547964    0.392058437335792  0.0000
  O1     O1        0.874294718266612    0.131638088771750    0.622429583304882  0.0000
  O3     O3        0.634161612678315    0.882228499714867    0.660861968926453  0.0000
  O3     O3        0.902774131260603    0.777912228283006    0.658650750960420  0.0000
  O1     O1        0.579824844280882    0.219627803389383    0.644418453810796  0.0000
  O1     O1        0.124279306638583    0.850227892713610    0.396638731084893  0.0000
  O1     O1        0.378323906415828    0.090401381721916    0.396497520577178  0.0000
  O1     O1        0.971591015920786    0.959859885021757    0.456442702514244  0.0000
  O1     O1        0.530577952846035    0.982147607330013    0.463807789130117  0.0000
  O1     O1        0.029755384034700    0.984561703726616    0.207252363642488  0.0000
  O1     O1        0.474596712820059    0.965503387809999    0.211672286776754  0.0000
  O1     O1        0.024235209557099    0.010252561023193    0.697648953010956  0.0000
  O1     O1        0.474565895242327    0.957174693643242    0.706735241225913  0.0000
  O1     O1        0.589122346046145    0.199773714715022    0.143091711466041  0.0000
  O1     O1        0.920884406421334    0.740126340842649    0.134683405262156  0.0000
  O1     O1        0.372739299156551    0.113767045824686    0.877634159330040  0.0000
  O1     O1        0.136468886907578    0.888141828944814    0.880904816865874  0.0000
  O3     O3        0.412985438387041    0.756678832137449    0.906920455097824  0.0000
  O1     O1        0.080999029659758    0.223820742626590    0.887779572229807  0.0000
  O1     O1        0.621660232494830    0.851482685092099    0.141486108670934  0.0000
  O1     O1        0.881028851929231    0.087365100482789    0.132127496530985  0.0000
  O1     O1        0.521245141202746    0.006895876792738    0.955576660313007  0.0000
  O1     O1        0.983076020599470    0.952623890196863    0.949825699259633  0.0000
  O1     O1        0.162518622572192    0.511945955905796    0.353877668840414  0.0000
  O1     O1        0.341786819821889    0.432151726077332    0.355136395025360  0.0000
  O3     O3        0.844684880328375    0.475178261333446    0.672859252729309  0.0000
  O3     O3        0.647724802230432    0.546441444586899    0.678672402686785  0.0000
  O1     O1        0.233302309885547    0.197830184962609    0.291642067331477  0.0000
  O1     O1        0.269735266645528    0.754432872473771    0.301411368871747  0.0000
  O1     O1        0.731639926165232    0.239282608478704    0.719182245893029  0.0000
  O2     O2        0.762323970314096    0.739933434229838    0.744028882376488  0.0000
  O1     O1        0.115877830583033    0.338531872181095    0.136463413582927  0.0000
  O3     O3        0.382439755130582    0.622352014634409    0.137831688885833  0.0000
  O1     O1        0.861625864556124    0.225602817495433    0.879670151118040  0.0000
  O3     O3        0.642644856194039    0.728341156441583    0.890183002169607  0.0000
  O3     O3        0.877504009667081    0.629144237645254    0.886189596028611  0.0000
  O1     O1        0.614790201948444    0.334002206477601    0.891455654510521  0.0000
  O1     O1        0.142690026631642    0.740707382301800    0.136109249064867  0.0000
  O1     O1        0.361782619285133    0.218669929502143    0.136624944568288  0.0000
  O1     O1        0.664296309672941    0.510405269988527    0.109964959874987  0.0000
  O1     O1        0.843340157950089    0.431852364815256    0.103287362943972  0.0000
  O3     O3        0.343379579665868    0.462808665521305    0.929166858301643  0.0000
  O1     O1        0.154777943946601    0.534776736904289    0.917686182559456  0.0000
  O1     O1        0.734731166362319    0.199370421854751    0.038506220640781  0.0000
  O1     O1        0.769718603236073    0.755906905473399    0.061515880278969  0.0000
  O1     O1        0.232516093804865    0.222889032398703    0.975434941080214  0.0000
  O3     O3        0.273296813445769    0.751563819156297    0.987033218039782  0.0000
