data_c00097.vasp
_audit_creation_method             Generated by GULP
_audit_author_name                 Salvador R. G. Balestra
_symmetry_space_group_name_H-M     'P 1             '
_symmetry_Int_Tables_number        1

loop_
_symmetry_equiv_pos_site_id
_symmetry_equiv_pos_as_xyz
_cell_length_a                       17.6521
_cell_length_b                        7.8605
_cell_length_c                       10.2653
_cell_angle_alpha                   90.7297
_cell_angle_beta                    90.6774
_cell_angle_gamma                   91.5886

loop_
_atom_site_label
_atom_site_type_symbol
_atom_site_fract_x
_atom_site_fract_y
_atom_site_fract_z
_atom_site_charge
  Ge     Ge        0.052090000000021    0.000000000000000    0.372269999999958  0.0000
  Ge     Ge        0.441661474376995    0.054887561875782    0.404685239923630  0.0000
  Ge     Ge        0.947068690767737    0.048229679671611    0.628410901371354  0.0000
  Ge     Ge        0.545885584239632    0.992315343956673    0.656926892631327  0.0000
  Ge     Ge        0.547688642394221    0.997583816652091    0.158498628450303  0.0000
  Ge     Ge        0.946093808406739    0.057850904648138    0.117939563914164  0.0000
  Ge     Ge        0.440591050007917    0.050028940601341    0.908042746174857  0.0000
  Ge     Ge        0.168370567657935    0.296738613862888    0.298240576394822  0.0000
  Ge     Ge        0.322859599912773    0.764448280450301    0.286893912032898  0.0000
  Ge     Ge        0.851189413892910    0.360978735294313    0.735764263693154  0.0000
  Ge     Ge        0.643629887405567    0.678230412988690    0.723499402305516  0.0000
  Ge     Ge        0.823539756788106    0.761158993229345    0.734258225286423  0.0000
  Ge     Ge        0.670616017858896    0.277947114902488    0.728345813003560  0.0000
  Ge     Ge        0.349034608525378    0.366091032178873    0.290244272441002  0.0000
  Ge     Ge        0.668665673627975    0.282934283948680    0.044974448566999  0.0000
  Ge     Ge        0.820796050904951    0.769369730724268    0.051746208286426  0.0000
  Ge     Ge        0.337183007358070    0.358485866508670    0.970023452073646  0.0000
  Ge     Ge        0.137525475775700    0.690026149256385    0.989776563454283  0.0000
  Ge     Ge        0.319391751496287    0.757342928426437    0.972551863987305  0.0000
  Ge     Ge        0.640782379389977    0.684735494573818    0.041674772852770  0.0000
  Ge     Ge        0.848491453273032    0.370622972800371    0.052967735720996  0.0000
  Si     Si        0.047791445905767    0.000985333139739    0.875797659811010  0.0000
  Si     Si        0.144839036062199    0.690374165052001    0.294582965712780  0.0000
  Si     Si        0.159342288922161    0.291899537498579    0.988257340417320  0.0000
  O1     O1        0.119331742512022    0.160924215883746    0.395934968015456  0.0000
  O1     O1        0.363119040181597    0.925456699639679    0.377949053537474  0.0000
  O1     O1        0.918204852865316    0.252147833174539    0.651779965433668  0.0000
  O1     O1        0.578394648394902    0.790036858738538    0.636159646631743  0.0000
  O1     O1        0.871922134240019    0.909456236790824    0.645628570471247  0.0000
  O1     O1        0.620297573664395    0.134033238027160    0.633176051086991  0.0000
  O3     O3        0.092690860966641    0.802340092215554    0.387214476044598  0.0000
  O1     O1        0.418191632704610    0.260339293106570    0.371370742409871  0.0000
  O1     O1        0.976620288190662    0.023644278183734    0.470210411302740  0.0000
  O1     O1        0.467949586105886    0.036484250195526    0.565684889687613  0.0000
  O1     O1        0.021873456525348    0.017014619484150    0.212873773771723  0.0000
  O1     O1        0.519410740846888    0.996097722517397    0.318286627205713  0.0000
  O3     O3        0.025788538554873    0.004924826566879    0.724156126251857  0.0000
  O1     O1        0.518352493336701    0.014707610416456    0.817769594787580  0.0000
  O1     O1        0.623542556849777    0.135785665222315    0.139776025648148  0.0000
  O1     O1        0.871519945706366    0.916063889496131    0.142552659190322  0.0000
  O1     O1        0.397559836538546    0.240924706699333    0.880341822082659  0.0000
  O3     O3        0.073316376416964    0.810090845351467    0.906525478661758  0.0000
  O1     O1        0.370183072005056    0.897143075282888    0.880900958045393  0.0000
  O2     O2        0.113515518728591    0.143638851629889    0.908062740061573  0.0000
  O1     O1        0.572137662201476    0.792757089883257    0.120733642317524  0.0000
  O1     O1        0.912813722458846    0.259159928131186    0.141436400635558  0.0000
  O1     O1        0.470612324750737    0.057059801934272    0.068709944232449  0.0000
  O3     O3        0.972712926117035    0.042318983028172    0.955051996908702  0.0000
  O3     O3        0.155589692132549    0.505029888759636    0.352538080703043  0.0000
  O1     O1        0.343556593776209    0.570054148446817    0.350821245044891  0.0000
  O1     O1        0.838525222154923    0.559395598837783    0.673054817221561  0.0000
  O1     O1        0.655974447853123    0.477542790800070    0.664565303500564  0.0000
  O1     O1        0.262937322536509    0.259229305099156    0.306160890421776  0.0000
  O3     O3        0.225849267182810    0.787373773113072    0.279012782167726  0.0000
  O1     O1        0.766171343953330    0.245887130967816    0.729278879824545  0.0000
  O1     O1        0.727845790352047    0.794601630367035    0.726045676127726  0.0000
  O3     O3        0.135430720021966    0.281238978502701    0.138466458777674  0.0000
  O1     O1        0.354748225834647    0.775177745720187    0.129711284238240  0.0000
  O1     O1        0.878933796296081    0.388721760757212    0.895047498821028  0.0000
  O1     O1        0.613819656934561    0.659147316043369    0.881609176710973  0.0000
  O1     O1        0.852380383217262    0.774431555452289    0.893991383951959  0.0000
  O1     O1        0.637652170246426    0.266339529257659    0.885682903389928  0.0000
  O3     O3        0.108507272224103    0.677108500309599    0.149612610766982  0.0000
  O1     O1        0.369653479371273    0.379818118734162    0.128102857658320  0.0000
  O1     O1        0.652156391423198    0.485474979343710    0.103641660387602  0.0000
  O1     O1        0.835037521396488    0.569313808939357    0.114930638388562  0.0000
  O1     O1        0.331005753221059    0.556824695271193    0.907656233032692  0.0000
  O3     O3        0.141864768374552    0.479694339798790    0.934604009570445  0.0000
  O1     O1        0.764379455807349    0.253290793616609    0.048014380040784  0.0000
  O1     O1        0.725074887642515    0.801305137064792    0.052203997593411  0.0000
  O3     O3        0.248091671782040    0.258452822323776    0.976452948884003  0.0000
  O1     O1        0.223813208890296    0.790191639682843    0.973636697066553  0.0000
