data_c00041.vasp
_audit_creation_method             Generated by GULP
_audit_author_name                 Salvador R. G. Balestra
_symmetry_space_group_name_H-M     'P 1             '
_symmetry_Int_Tables_number        1

loop_
_symmetry_equiv_pos_site_id
_symmetry_equiv_pos_as_xyz
_cell_length_a                       17.6264
_cell_length_b                        7.8579
_cell_length_c                       10.2114
_cell_angle_alpha                   90.3451
_cell_angle_beta                    90.5744
_cell_angle_gamma                   88.0506

loop_
_atom_site_label
_atom_site_type_symbol
_atom_site_fract_x
_atom_site_fract_y
_atom_site_fract_z
_atom_site_charge
  Ge     Ge        0.052090000000021    0.000000000000000    0.372269999999958  0.0000
  Ge     Ge        0.443819043572937    0.950740513240793    0.356263943572940  0.0000
  Ge     Ge        0.941674625470895    0.943533697517235    0.614095912364633  0.0000
  Ge     Ge        0.547210952581058    0.005941534466761    0.612595384098007  0.0000
  Ge     Ge        0.551110573201215    0.001409361345704    0.111821957413961  0.0000
  Ge     Ge        0.938499447354951    0.947877825250796    0.127673955167181  0.0000
  Ge     Ge        0.443421622571473    0.941695619874964    0.864115684308246  0.0000
  Ge     Ge        0.040544047211935    0.008602398003256    0.873068486911470  0.0000
  Ge     Ge        0.145903547588053    0.311804937299951    0.253651148884708  0.0000
  Ge     Ge        0.354050533522397    0.629225804772801    0.245443028646353  0.0000
  Ge     Ge        0.820654544419077    0.231578712756780    0.690267862255285  0.0000
  Ge     Ge        0.665693605658700    0.707934931792040    0.684694368066491  0.0000
  Ge     Ge        0.846475035508462    0.630976776150496    0.682897632021793  0.0000
  Ge     Ge        0.171387589989828    0.709810944261004    0.257384051077763  0.0000
  Ge     Ge        0.638182937566728    0.319674237436853    0.994246452445814  0.0000
  Ge     Ge        0.845119030571457    0.636340065807022    0.001902371149607  0.0000
  Ge     Ge        0.318700415320087    0.232843312169472    0.930950667660945  0.0000
  Ge     Ge        0.166035492919608    0.719819093468393    0.940972620426350  0.0000
  Ge     Ge        0.346371923099450    0.632558449194058    0.929885808288453  0.0000
  Ge     Ge        0.140000360537319    0.318698656932467    0.933342631949072  0.0000
  Ge     Ge        0.819346767354035    0.236155955287547    0.008221296390107  0.0000
  Si     Si        0.643009226123505    0.312896926824075    0.685855797635737  0.0000
  Si     Si        0.324574790199903    0.237731869943942    0.243218034027008  0.0000
  Si     Si        0.666003478495976    0.714280534794997    0.994566507206198  0.0000
  O1     O1        0.081823677278102    0.200790636471453    0.340535874947961  0.0000
  O1     O1        0.417451758531745    0.743815010088812    0.335519272576448  0.0000
  O1     O1        0.865907240728351    0.085858021530712    0.591876565381911  0.0000
  O1     O1        0.614163874643424    0.844091992339824    0.586815950138431  0.0000
  O1     O1        0.909705455231808    0.741742017466249    0.592096592167232  0.0000
  O3     O3        0.587302387330497    0.203461603104442    0.595918744480012  0.0000
  O1     O1        0.127727949157184    0.860981710798931    0.354157671509138  0.0000
  O3     O3        0.368297305969957    0.088948592739165    0.321729380569602  0.0000
  O1     O1        0.021555980170916    0.990415565923641    0.532468349134555  0.0000
  O1     O1        0.468407800862591    0.982957596759741    0.518236632371717  0.0000
  O1     O1        0.971483270254358    0.948715030453211    0.286669567931059  0.0000
  O1     O1        0.525347984966705    0.991875491676824    0.273231138545053  0.0000
  O1     O1        0.964421642664685    0.963174931279936    0.779367899428625  0.0000
  O1     O1        0.519896893981817    0.986011852542313    0.773331796282459  0.0000
  O1     O1        0.573440911784262    0.208923334092050    0.078764617869298  0.0000
  O1     O1        0.908624807094762    0.746407846004029    0.092522381082088  0.0000
  O1     O1        0.370079666482132    0.090090706241676    0.840669719803927  0.0000
  O1     O1        0.115078619647808    0.863829040746937    0.849483905193149  0.0000
  O1     O1        0.407253509880000    0.744156287335583    0.835838346793212  0.0000
  O1     O1        0.073090778724015    0.210067146869367    0.847746102017489  0.0000
  O3     O3        0.626755688487840    0.860189256791200    0.082635316676980  0.0000
  O1     O1        0.862626132626905    0.088077056362048    0.107618152162456  0.0000
  O1     O1        0.471699906363263    0.947697601964554    0.026244676440689  0.0000
  O1     O1        0.014086403756774    0.002047221694996    0.035325914492662  0.0000
  O1     O1        0.153699534794707    0.511487078581531    0.318707081123086  0.0000
  O3     O3        0.343686769800617    0.422910950896781    0.302406454146582  0.0000
  O1     O1        0.838279190686212    0.428649152252931    0.625953906494875  0.0000
  O3     O3        0.653871736979650    0.499538393314179    0.629413584345883  0.0000
  O3     O3        0.234821292354943    0.208912544038359    0.251287417099442  0.0000
  O1     O1        0.267201925654412    0.734709935780274    0.253707958717682  0.0000
  O3     O3        0.723471774850203    0.208465530203861    0.695212932477298  0.0000
  O1     O1        0.760414523953973    0.743293840220285    0.677308846270873  0.0000
  O1     O1        0.114519285980180    0.333369736536772    0.095532675964449  0.0000
  O1     O1        0.383189101463211    0.618389773666395    0.086631796856020  0.0000
  O1     O1        0.852283704663394    0.217419395380789    0.850227361953363  0.0000
  O3     O3        0.635273037897166    0.728395777798059    0.845585384311553  0.0000
  O1     O1        0.876297068567181    0.620022398042979    0.843674157168327  0.0000
  O3     O3        0.609586337533188    0.329877834686884    0.831755477257459  0.0000
  O1     O1        0.135256025590089    0.729292808388993    0.100835870183168  0.0000
  O3     O3        0.350414588594231    0.232427617543691    0.092626835758334  0.0000
  O3     O3        0.647303620632917    0.527495777734326    0.049166887115002  0.0000
  O1     O1        0.838093308198646    0.437174371296505    0.065529872340861  0.0000
  O1     O1        0.331732812899882    0.434490589314212    0.869287014732176  0.0000
  O1     O1        0.151255808783122    0.518848885353235    0.876338064921776  0.0000
  O1     O1        0.723382638437333    0.210948048526211    0.009587971472888  0.0000
  O3     O3        0.756065535549914    0.738149598007074    0.996183802345648  0.0000
  O1     O1        0.223826802143276    0.197991970598134    0.925854209131195  0.0000
  O1     O1        0.261662329243682    0.749659527754806    0.939783843159596  0.0000
