data_c00154.vasp
_audit_creation_method             Generated by GULP
_audit_author_name                 Salvador R. G. Balestra
_symmetry_space_group_name_H-M     'P 1             '
_symmetry_Int_Tables_number        1

loop_
_symmetry_equiv_pos_site_id
_symmetry_equiv_pos_as_xyz
_cell_length_a                       17.5956
_cell_length_b                        7.8261
_cell_length_c                       10.2912
_cell_angle_alpha                   89.2294
_cell_angle_beta                    90.5959
_cell_angle_gamma                   91.2535

loop_
_atom_site_label
_atom_site_type_symbol
_atom_site_fract_x
_atom_site_fract_y
_atom_site_fract_z
_atom_site_charge
  Ge     Ge        0.052090000000021    0.000000000000000    0.372269999999958  0.0000
  Ge     Ge        0.451773968441580    0.049562625209377    0.420576679930928  0.0000
  Ge     Ge        0.948715327073218    0.045437488822790    0.624803210981122  0.0000
  Ge     Ge        0.558380869638503    0.993681533238503    0.173254825943546  0.0000
  Ge     Ge        0.950488606894072    0.056717619282344    0.112347501892642  0.0000
  Ge     Ge        0.453540924181902    0.070051465951026    0.918303258886412  0.0000
  Ge     Ge        0.060203444311513    0.006442649755206    0.868299349090413  0.0000
  Ge     Ge        0.176896644531160    0.280598246596798    0.298336488509567  0.0000
  Ge     Ge        0.329244426081809    0.768074636507412    0.308014445312325  0.0000
  Ge     Ge        0.851993699933240    0.355006257268049    0.742058181220057  0.0000
  Ge     Ge        0.645580465470892    0.680490317078594    0.738868668102594  0.0000
  Ge     Ge        0.827173093564641    0.758637406628191    0.735751720396812  0.0000
  Ge     Ge        0.670907899069032    0.277576174507447    0.742478012525758  0.0000
  Ge     Ge        0.149466114219345    0.685504661918507    0.303253968492393  0.0000
  Ge     Ge        0.357751510244517    0.364273374205228    0.298924054613714  0.0000
  Ge     Ge        0.676470192745067    0.279994085030898    0.058019882434057  0.0000
  Ge     Ge        0.829656322145376    0.760841305822513    0.049415340389393  0.0000
  Ge     Ge        0.356736434739296    0.383302709461229    0.981439506659685  0.0000
  Ge     Ge        0.329804051174290    0.782883846933129    0.993502066858402  0.0000
  Ge     Ge        0.176165090078248    0.301369067841340    0.983777400249999  0.0000
  Ge     Ge        0.648558007983191    0.680075257152337    0.054950114888757  0.0000
  Si     Si        0.551973035993036    0.995716803331400    0.671434069739872  0.0000
  Si     Si        0.152657905378472    0.699654140973035    0.995061983322129  0.0000
  Si     Si        0.852453533090352    0.366465405849157    0.050822250160617  0.0000
  O1     O1        0.128382314528114    0.138513955666806    0.395368741568536  0.0000
  O1     O1        0.375564611435223    0.912251586338710    0.405153404071843  0.0000
  O1     O1        0.921160645843135    0.247343205706252    0.664931896214712  0.0000
  O3     O3        0.580915443804284    0.804383252022451    0.652627841225274  0.0000
  O1     O1        0.873537912682448    0.904836854195220    0.639000287243819  0.0000
  O3     O3        0.621131044889341    0.130799626282734    0.648767902200270  0.0000
  O1     O1        0.082836291619410    0.793366264677554    0.387957351452682  0.0000
  O1     O1        0.425346041018546    0.254308528733182    0.384614225384836  0.0000
  O1     O1        0.975632798918146    0.043404733912016    0.464011964461290  0.0000
  O3     O3        0.480215774462434    0.038785812330958    0.582871067955304  0.0000
  O1     O1        0.026640702401856    0.030374127790617    0.210800044673368  0.0000
  O1     O1        0.528234683934083    0.992330734573271    0.330999097088843  0.0000
  O1     O1        0.029256733231371    0.990673626408670    0.709788500058983  0.0000
  O3     O3        0.527331671060459    0.014306105392798    0.822072924320863  0.0000
  O1     O1        0.637440186091948    0.124992032262361    0.155235127805596  0.0000
  O1     O1        0.881916245466527    0.900148823210887    0.141560082198212  0.0000
  O1     O1        0.421492640401072    0.273699608543529    0.893194256789866  0.0000
  O3     O3        0.092850764727896    0.806385853098948    0.911748562507684  0.0000
  O1     O1        0.375765748483956    0.933779967421244    0.901979761409312  0.0000
  O1     O1        0.128171900377217    0.166071178776730    0.881138613931647  0.0000
  O1     O1        0.581651666530163    0.787672386517739    0.137584772046238  0.0000
  O3     O3        0.912305220327168    0.258282120528365    0.133238465741444  0.0000
  O1     O1        0.485108715636432    0.063144641462083    0.077340368573946  0.0000
  O1     O1        0.980390574544932    0.050943059739400    0.953958082367041  0.0000
  O1     O1        0.161227903565428    0.482399401272491    0.358562262018614  0.0000
  O1     O1        0.344225496980368    0.562311111234476    0.362879988578906  0.0000
  O1     O1        0.841111755416684    0.556259723537757    0.677909515528461  0.0000
  O1     O1        0.654233029652189    0.479497221258578    0.678775567351730  0.0000
  O1     O1        0.273002076137293    0.248537745608811    0.300486785159945  0.0000
  O1     O1        0.233463777127418    0.801997241491629    0.310664990161828  0.0000
  O1     O1        0.766765192940856    0.242766453510686    0.733943288885126  0.0000
  O1     O1        0.731109560767048    0.790626875115378    0.736796484798905  0.0000
  O1     O1        0.144943248389385    0.268288224806770    0.139303883335342  0.0000
  O1     O1        0.362461196235503    0.792974419400732    0.151708101331592  0.0000
  O3     O3        0.878628766020389    0.390152016276335    0.901967909926250  0.0000
  O1     O1        0.618128906744300    0.654930352818920    0.897181517068552  0.0000
  O1     O1        0.860573114447832    0.783272962745873    0.892166876426753  0.0000
  O1     O1        0.641607262891384    0.264070090457191    0.901435969659512  0.0000
  O3     O3        0.122347332715063    0.673039313824818    0.140581956965451  0.0000
  O1     O1        0.385877412178036    0.394818006696631    0.141553271177059  0.0000
  O1     O1        0.658322464941578    0.478279095989537    0.119052606257771  0.0000
  O3     O3        0.841441640593441    0.552579596571355    0.108774300835236  0.0000
  O1     O1        0.347681990195212    0.587593606193575    0.925784354325580  0.0000
  O3     O3        0.164615561150593    0.514040965645909    0.935133655072668  0.0000
  O3     O3        0.773621841081971    0.256861272262880    0.048042581467129  0.0000
  O1     O1        0.733785809936063    0.793633210369718    0.055999109658610  0.0000
  O1     O1        0.271883611913753    0.268794835228774    0.978274791987002  0.0000
  O3     O3        0.232272055928120    0.807088758532421    0.998100170684904  0.0000
