data_c00190.vasp
_audit_creation_method             Generated by GULP
_audit_author_name                 Salvador R. G. Balestra
_symmetry_space_group_name_H-M     'P 1             '
_symmetry_Int_Tables_number        1

loop_
_symmetry_equiv_pos_site_id
_symmetry_equiv_pos_as_xyz
_cell_length_a                       17.6698
_cell_length_b                        7.8609
_cell_length_c                       10.0678
_cell_angle_alpha                   91.4121
_cell_angle_beta                    89.9422
_cell_angle_gamma                   88.5090

loop_
_atom_site_label
_atom_site_type_symbol
_atom_site_fract_x
_atom_site_fract_y
_atom_site_fract_z
_atom_site_charge
  Ge     Ge        0.052090000000021    0.000000000000000    0.372269999999958  0.0000
  Ge     Ge        0.444228450565132    0.957687171515211    0.391987200939854  0.0000
  Ge     Ge        0.941676329858194    0.932493613956008    0.616095378481194  0.0000
  Ge     Ge        0.544922512259812    0.014289598461983    0.130936737140863  0.0000
  Ge     Ge        0.946465445368334    0.951251740528417    0.120037586382382  0.0000
  Ge     Ge        0.444238118080754    0.949535914178966    0.869146827548318  0.0000
  Ge     Ge        0.050251333853110    0.002511843704965    0.865637541100425  0.0000
  Ge     Ge        0.144114318641288    0.319352111668035    0.305007465208235  0.0000
  Ge     Ge        0.348028226317064    0.642248376687516    0.315110675131502  0.0000
  Ge     Ge        0.822275745936659    0.225485449301337    0.737182587689754  0.0000
  Ge     Ge        0.663275743153387    0.690134246675295    0.733153106623898  0.0000
  Ge     Ge        0.846921108303422    0.623020047344573    0.728284769749419  0.0000
  Ge     Ge        0.325462462420310    0.241232897224358    0.306584129504171  0.0000
  Ge     Ge        0.645101992087103    0.319710561437514    0.064775173807877  0.0000
  Ge     Ge        0.846079806769407    0.640110044527850    0.052701240649366  0.0000
  Ge     Ge        0.323844181310299    0.237018806898906    0.985328940765974  0.0000
  Ge     Ge        0.171803803552486    0.718658545044046    0.991230750284994  0.0000
  Ge     Ge        0.351952223906202    0.641021369344639    0.991291973611417  0.0000
  Ge     Ge        0.142061923913984    0.316950601313071    0.985936147802144  0.0000
  Ge     Ge        0.666872180623358    0.722190950624185    0.053540971304657  0.0000
  Ge     Ge        0.823066891303899    0.238384511557031    0.059477135703757  0.0000
  Si     Si        0.554142448675245    0.987517750947823    0.628498362419609  0.0000
  Si     Si        0.643686251754346    0.297268789325483    0.748546482478595  0.0000
  Si     Si        0.170906439292502    0.711988591538477    0.308041213884318  0.0000
  O1     O1        0.085806195787742    0.200604727676268    0.401142837724119  0.0000
  O1     O1        0.407999611391686    0.760046650647654    0.411977995344658  0.0000
  O1     O1        0.864051450650692    0.063291469498166    0.646728310683969  0.0000
  O3     O3        0.615952598286087    0.835797973003895    0.635216540253938  0.0000
  O1     O1        0.912862192913158    0.729055465484385    0.639607270412852  0.0000
  O2     O2        0.585526550650092    0.170509852147728    0.675417961097243  0.0000
  O3     O3        0.123949622135040    0.848817992129862    0.397427031075118  0.0000
  O1     O1        0.371659517822143    0.105338811527713    0.410881199784436  0.0000
  O1     O1        0.970827955695769    0.956093762202406    0.454129798296201  0.0000
  O3     O3        0.526469486414771    0.999927914873770    0.476596558366002  0.0000
  O1     O1        0.026702719919827    0.989483463887497    0.206235882916253  0.0000
  O1     O1        0.469520507519741    0.972323364444483    0.226260412111808  0.0000
  O1     O1        0.022135960579176    0.983176753810117    0.702544186876720  0.0000
  O3     O3        0.477497018804911    0.946300882437212    0.706657121463059  0.0000
  O1     O1        0.580076048858265    0.215689852116908    0.155147909508865  0.0000
  O1     O1        0.909777917719714    0.753679064370204    0.143823400764300  0.0000
  O1     O1        0.367287121758364    0.086289357864787    0.884258149415851  0.0000
  O1     O1        0.125674104719675    0.868774664363082    0.901024586977538  0.0000
  O1     O1        0.418413169789830    0.745897144347561    0.904262191151342  0.0000
  O1     O1        0.077589045738213    0.208924832451167    0.892204384870698  0.0000
  O1     O1        0.617731494731563    0.866509803198788    0.150254923315130  0.0000
  O1     O1        0.876311242091870    0.103058018344578    0.152685582100521  0.0000
  O1     O1        0.517434043554091    0.011109859013721    0.966859745374621  0.0000
  O1     O1        0.971467154140409    0.954158576641873    0.954029432899190  0.0000
  O3     O3        0.156739571946691    0.524471703743449    0.364900088496994  0.0000
  O1     O1        0.340364768431880    0.442733926700794    0.372409125069451  0.0000
  O1     O1        0.841496814224315    0.417111186647715    0.668312757354099  0.0000
  O3     O3        0.647238184567852    0.480395661778451    0.680297068525314  0.0000
  O1     O1        0.230054906981100    0.211220475526547    0.300237777755655  0.0000
  O3     O3        0.259785088787832    0.747186995384379    0.311837362321254  0.0000
  O3     O3        0.725216688941906    0.202482268511930    0.744352612681497  0.0000
  O1     O1        0.758554362901583    0.720851168556084    0.721186299161752  0.0000
  O1     O1        0.108950325703302    0.328299259420792    0.146908480333578  0.0000
  O1     O1        0.380306373640682    0.629262223299913    0.154258727497704  0.0000
  O1     O1        0.854671397320834    0.220278230636977    0.897480800298917  0.0000
  O1     O1        0.632713369975981    0.725978356984710    0.892709082504624  0.0000
  O1     O1        0.875710891027955    0.613412920488015    0.890517788282544  0.0000
  O3     O3        0.618169965757939    0.335502771948566    0.898825028031925  0.0000
  O3     O3        0.142281119509505    0.719587160572333    0.156030680019709  0.0000
  O1     O1        0.358290843941883    0.222823323926751    0.145129273726749  0.0000
  O1     O1        0.655992760023538    0.523313485766997    0.120383118527730  0.0000
  O1     O1        0.833697764283883    0.445073707218766    0.117862217286194  0.0000
  O1     O1        0.340496372053719    0.438456131972217    0.929534575074443  0.0000
  O1     O1        0.153198721514036    0.518101002116156    0.928181985581131  0.0000
  O1     O1        0.728330636355590    0.200428879582899    0.067928083132415  0.0000
  O1     O1        0.762003770588541    0.757341138565083    0.048115562455694  0.0000
  O1     O1        0.228068023526885    0.208862204934424    0.985594580630793  0.0000
  O1     O1        0.266828013827723    0.752797997659667    0.985017823243728  0.0000
