data_c00122.vasp
_audit_creation_method             Generated by GULP
_audit_author_name                 Salvador R. G. Balestra
_symmetry_space_group_name_H-M     'P 1             '
_symmetry_Int_Tables_number        1

loop_
_symmetry_equiv_pos_site_id
_symmetry_equiv_pos_as_xyz
_cell_length_a                       17.6000
_cell_length_b                        7.8450
_cell_length_c                       10.2507
_cell_angle_alpha                   89.0390
_cell_angle_beta                    90.7419
_cell_angle_gamma                   88.3131

loop_
_atom_site_label
_atom_site_type_symbol
_atom_site_fract_x
_atom_site_fract_y
_atom_site_fract_z
_atom_site_charge
  Ge     Ge        0.052090000000021    0.000000000000000    0.372269999999958  0.0000
  Ge     Ge        0.441115346155745    0.956091558943169    0.358909546036662  0.0000
  Ge     Ge        0.943793897528166    0.963155252536782    0.623620894342381  0.0000
  Ge     Ge        0.545364555899178    0.024682535407341    0.609646209633428  0.0000
  Ge     Ge        0.550386448078792    0.016747614068151    0.117209554662969  0.0000
  Ge     Ge        0.944353818248603    0.952338845366576    0.118720861687684  0.0000
  Ge     Ge        0.443937017481018    0.960017551477814    0.865167700422161  0.0000
  Ge     Ge        0.144188016616813    0.317683808135480    0.253478129116487  0.0000
  Ge     Ge        0.353052832135772    0.636139937633851    0.245212995107447  0.0000
  Ge     Ge        0.824471664753679    0.258532348040799    0.686903765670547  0.0000
  Ge     Ge        0.669012845181148    0.736817734188141    0.684968473237359  0.0000
  Ge     Ge        0.643016604079171    0.337621151580523    0.678038261518023  0.0000
  Ge     Ge        0.170700637588285    0.715050153538346    0.258707834924846  0.0000
  Ge     Ge        0.642084607039521    0.330157189028469    0.996705003484033  0.0000
  Ge     Ge        0.851192987796574    0.644191790572258    0.999733572992849  0.0000
  Ge     Ge        0.319259515374025    0.248989091346045    0.934184633228439  0.0000
  Ge     Ge        0.161715463658584    0.729347584348039    0.943191418087743  0.0000
  Ge     Ge        0.343372898414867    0.651123675997145    0.930546831270650  0.0000
  Ge     Ge        0.139136465124782    0.327211034583913    0.935969490245132  0.0000
  Ge     Ge        0.671489206558413    0.732914274203602    0.002543837267160  0.0000
  Ge     Ge        0.823017055307541    0.241784639577937    0.003319485389273  0.0000
  Si     Si        0.043724664429229    0.021734071136759    0.873881094324506  0.0000
  Si     Si        0.846049913984069    0.652428344843377    0.689115425238907  0.0000
  Si     Si        0.323233053067006    0.243677539329584    0.243849970472342  0.0000
  O1     O1        0.080767444154858    0.203645438398317    0.340545963066439  0.0000
  O1     O1        0.417140278185534    0.748343073867439    0.334697758283376  0.0000
  O1     O1        0.876095190610038    0.121462584502828    0.591849452865466  0.0000
  O1     O1        0.621432323256788    0.884324800252836    0.588726656877510  0.0000
  O3     O3        0.904986585870965    0.763522191937467    0.608398688781632  0.0000
  O1     O1        0.578238354240634    0.226727951332914    0.588820624751287  0.0000
  O1     O1        0.128958881201186    0.864674338858112    0.355299926287307  0.0000
  O3     O3        0.364519495793155    0.093008495530228    0.326509254330625  0.0000
  O1     O1        0.021850677800543    0.985077471712732    0.530915733854151  0.0000
  O1     O1        0.466665811824564    0.979558849831108    0.520519237123485  0.0000
  O1     O1        0.975113893445778    0.948584277562718    0.277916195517226  0.0000
  O1     O1        0.521467067288428    0.008899559096752    0.276727056422874  0.0000
  O3     O3        0.971322210198242    0.983151149206672    0.786462517601506  0.0000
  O1     O1        0.519813911598509    0.001935623717071    0.771816752243695  0.0000
  O1     O1        0.574533589792447    0.222517692396640    0.080138981221537  0.0000
  O1     O1        0.921125691146474    0.747884691544909    0.079411036653441  0.0000
  O1     O1        0.371655855948251    0.112011103695684    0.843472528432526  0.0000
  O3     O3        0.110723486402156    0.880769347071729    0.852119929170341  0.0000
  O1     O1        0.404519443819877    0.765261592498069    0.837420719359838  0.0000
  O3     O3        0.075053177724598    0.209943043743150    0.847046574506797  0.0000
  O1     O1        0.627423807971822    0.880634735497440    0.097744887104835  0.0000
  O1     O1        0.867416905156905    0.090170267431949    0.101170924681315  0.0000
  O1     O1        0.473924215624123    0.956774999547998    0.025977867490649  0.0000
  O3     O3        0.019681333428317    0.017411914602161    0.025600088876266  0.0000
  O1     O1        0.153312555529046    0.514463035504725    0.319921023393348  0.0000
  O3     O3        0.342921891603709    0.427863776904765    0.302032115076918  0.0000
  O3     O3        0.835201590854556    0.467493180130664    0.629167341588889  0.0000
  O1     O1        0.651484178182027    0.540548587382251    0.619605389588239  0.0000
  O3     O3        0.233269935928582    0.216236685564385    0.246998498062945  0.0000
  O1     O1        0.266549540092097    0.741819218143883    0.253557983977476  0.0000
  O1     O1        0.728792761412584    0.224881284220772    0.677949247195296  0.0000
  O3     O3        0.766501912453439    0.761020433590292    0.690052351661957  0.0000
  O1     O1        0.112319188215190    0.344785646441462    0.095668350919287  0.0000
  O1     O1        0.380911811187745    0.631387432177252    0.086585562331986  0.0000
  O1     O1        0.854549483567883    0.228694478602602    0.845735675076729  0.0000
  O1     O1        0.638747134356868    0.751119836995318    0.843635425675559  0.0000
  O3     O3        0.874955316759692    0.621778595790875    0.837227208400628  0.0000
  O1     O1        0.613440082688348    0.353792206644221    0.836693336781272  0.0000
  O1     O1        0.133220595253738    0.734788001420525    0.102868561716668  0.0000
  O3     O3        0.351834846598864    0.238814626903508    0.095260998564211  0.0000
  O1     O1        0.654555188033948    0.528993144092901    0.058796755083690  0.0000
  O1     O1        0.840657884205724    0.442573486714458    0.061482252169745  0.0000
  O1     O1        0.330355450563841    0.452564820899088    0.871796266032685  0.0000
  O1     O1        0.146622238038311    0.530863932230972    0.877395763960605  0.0000
  O1     O1        0.726719408568945    0.214255931777040    0.002918186066512  0.0000
  O1     O1        0.767691732144922    0.761905127939143    0.008938732292716  0.0000
  O1     O1        0.224182491164500    0.213025650169607    0.930356291982025  0.0000
  O1     O1        0.257412088267597    0.762414906055106    0.938916152717737  0.0000
