data_c00198.vasp
_audit_creation_method             Generated by GULP
_audit_author_name                 Salvador R. G. Balestra
_symmetry_space_group_name_H-M     'P 1             '
_symmetry_Int_Tables_number        1

loop_
_symmetry_equiv_pos_site_id
_symmetry_equiv_pos_as_xyz
_cell_length_a                       17.6255
_cell_length_b                        7.8319
_cell_length_c                       10.2262
_cell_angle_alpha                   89.2907
_cell_angle_beta                    90.1795
_cell_angle_gamma                   88.9012

loop_
_atom_site_label
_atom_site_type_symbol
_atom_site_fract_x
_atom_site_fract_y
_atom_site_fract_z
_atom_site_charge
  Ge     Ge        0.052090000000021    0.000000000000000    0.372269999999958  0.0000
  Ge     Ge        0.449691158630613    0.955779887378730    0.371247267928487  0.0000
  Ge     Ge        0.943359830372893    0.955351090412824    0.622529381682968  0.0000
  Ge     Ge        0.557390007984614    0.004545685107373    0.122130380292178  0.0000
  Ge     Ge        0.945211308294275    0.947901358815753    0.122880147825687  0.0000
  Ge     Ge        0.451015578510004    0.950409263533318    0.868925796679847  0.0000
  Ge     Ge        0.049250245337181    0.014547287687238    0.873173543812343  0.0000
  Ge     Ge        0.145116285344547    0.317529148846295    0.255749341995663  0.0000
  Ge     Ge        0.356564625775744    0.640289383838155    0.256215731018258  0.0000
  Ge     Ge        0.825813706927682    0.250335984736635    0.687318609116799  0.0000
  Ge     Ge        0.666189790006244    0.722265361003960    0.696057943192686  0.0000
  Ge     Ge        0.645200200314421    0.320203511331623    0.687554574130719  0.0000
  Ge     Ge        0.175219057814856    0.719272029707109    0.259461450246716  0.0000
  Ge     Ge        0.326333699464223    0.237658454757605    0.260610860317798  0.0000
  Ge     Ge        0.852842763852223    0.636293741663307    0.002486180189212  0.0000
  Ge     Ge        0.327350898071679    0.235181710490960    0.943618137410350  0.0000
  Ge     Ge        0.173796748295171    0.726832741832177    0.942696389155603  0.0000
  Ge     Ge        0.352404305372220    0.638823360460810    0.938092006833494  0.0000
  Ge     Ge        0.148858858741540    0.324285409115666    0.937146030774588  0.0000
  Ge     Ge        0.672555270370915    0.710354080491354    0.012062898740739  0.0000
  Ge     Ge        0.825785159147836    0.234166457454040    0.003901599515987  0.0000
  Si     Si        0.551430618512717    0.009381042068706    0.620135395571677  0.0000
  Si     Si        0.843824155861274    0.646002025936001    0.690843875569663  0.0000
  Si     Si        0.648876846126373    0.313561849576948    0.998794575205947  0.0000
  O1     O1        0.077439504214693    0.206710872559714    0.339597115247889  0.0000
  O1     O1        0.424450625661301    0.750039726275441    0.339368801800464  0.0000
  O1     O1        0.878045207328942    0.116966564173421    0.590330031537605  0.0000
  O3     O3        0.620521847676314    0.874234315378287    0.599127587300329  0.0000
  O3     O3        0.900954884177886    0.758398052394632    0.605719485824325  0.0000
  O3     O3        0.580838558184743    0.201054897851433    0.600645362003286  0.0000
  O1     O1        0.129397718111835    0.867982086910914    0.352724613897110  0.0000
  O1     O1        0.371561241539837    0.086888804601476    0.356281201850938  0.0000
  O1     O1        0.023346429902624    0.979079303262985    0.532789602265199  0.0000
  O3     O3        0.479414730959028    0.968008881689238    0.533579302649999  0.0000
  O1     O1        0.973392520179046    0.944545970215556    0.283557737605132  0.0000
  O1     O1        0.525557304807279    0.018949260423367    0.279953642803764  0.0000
  O1     O1        0.971162087071413    0.969716395497166    0.784036766625500  0.0000
  O3     O3        0.527711974397995    0.991092603610021    0.772465490735914  0.0000
  O3     O3        0.588073479718223    0.206213491169084    0.078185674675699  0.0000
  O1     O1        0.923134486485820    0.742742606938183    0.078928323090088  0.0000
  O1     O1        0.378499798141075    0.098547211356332    0.848307600447085  0.0000
  O1     O1        0.121609495551853    0.867486110770785    0.849547235464415  0.0000
  O1     O1        0.415558899041733    0.750227476656872    0.845151072583739  0.0000
  O1     O1        0.084929145274384    0.214906753423573    0.845496042872222  0.0000
  O1     O1        0.626966888729125    0.848522228073911    0.114145822718775  0.0000
  O1     O1        0.866608210439254    0.079112296415261    0.100269782049629  0.0000
  O1     O1        0.480615148443169    0.953316562414130    0.029462981195115  0.0000
  O1     O1        0.021477932878907    0.016040594367291    0.035310130488220  0.0000
  O1     O1        0.157874261183990    0.516997378661393    0.319208528046661  0.0000
  O1     O1        0.343783307458526    0.438762301636588    0.319101217623579  0.0000
  O3     O3        0.834003031947512    0.460268893511733    0.630572964509648  0.0000
  O1     O1        0.647634269540220    0.525551545731000    0.630394920691921  0.0000
  O1     O1        0.230359742199113    0.205751417704876    0.261221926125640  0.0000
  O1     O1        0.271220302006546    0.751595326630265    0.260788692944491  0.0000
  O1     O1        0.730592684177748    0.212449659335207    0.678721434568450  0.0000
  O3     O3        0.763471790856970    0.748475540499154    0.696993574008016  0.0000
  O1     O1        0.118063541439325    0.345889402062797    0.095885942515204  0.0000
  O1     O1        0.384147624740104    0.617118548615680    0.096894640859815  0.0000
  O1     O1        0.857460913492325    0.220295385400274    0.845353359743750  0.0000
  O1     O1        0.637713895777960    0.739376425486869    0.856018695605816  0.0000
  O3     O3        0.874500446113546    0.617525031098557    0.837908854751826  0.0000
  O3     O3        0.620396013512635    0.342008019783273    0.850476915957038  0.0000
  O1     O1        0.141777979129328    0.737984930637142    0.101475249444264  0.0000
  O1     O1        0.359290716914739    0.220421870989265    0.102774178629242  0.0000
  O3     O3        0.660325905259338    0.498547125036343    0.061118102505686  0.0000
  O1     O1        0.846685294555561    0.432231963886903    0.063505923387882  0.0000
  O1     O1        0.338127567082140    0.439581518641375    0.880400176056349  0.0000
  O1     O1        0.162688904848086    0.525189934128341    0.878285147920282  0.0000
  O3     O3        0.728403390601871    0.208446866715515    0.998784193589198  0.0000
  O1     O1        0.768080593516267    0.745789240547369    0.018150095386961  0.0000
  O1     O1        0.231583989411143    0.201577989604235    0.942203432869547  0.0000
  O1     O1        0.269421762790672    0.760757731466080    0.942547268118012  0.0000
