data_c00166.vasp
_audit_creation_method             Generated by GULP
_audit_author_name                 Salvador R. G. Balestra
_symmetry_space_group_name_H-M     'P 1             '
_symmetry_Int_Tables_number        1

loop_
_symmetry_equiv_pos_site_id
_symmetry_equiv_pos_as_xyz
_cell_length_a                       17.5634
_cell_length_b                        7.8434
_cell_length_c                       10.2546
_cell_angle_alpha                   90.1663
_cell_angle_beta                    91.0987
_cell_angle_gamma                   88.3512

loop_
_atom_site_label
_atom_site_type_symbol
_atom_site_fract_x
_atom_site_fract_y
_atom_site_fract_z
_atom_site_charge
  Ge     Ge        0.052090000000021    0.000000000000000    0.372269999999958  0.0000
  Ge     Ge        0.445446899026864    0.950691770247027    0.411384512664136  0.0000
  Ge     Ge        0.942555209219888    0.955285122298510    0.617384586237126  0.0000
  Ge     Ge        0.553464906006322    0.003388590820591    0.166945189532554  0.0000
  Ge     Ge        0.950089627725379    0.938014943163331    0.114118057471287  0.0000
  Ge     Ge        0.447185262993439    0.932100042120109    0.911163512719822  0.0000
  Ge     Ge        0.054287391215869    0.995005623768106    0.865257322841366  0.0000
  Ge     Ge        0.150251799151383    0.311513951340263    0.301066527082779  0.0000
  Ge     Ge        0.355547023638539    0.630892609727721    0.291436447725340  0.0000
  Ge     Ge        0.821050080871641    0.241990927101416    0.727661594279197  0.0000
  Ge     Ge        0.664120412827566    0.721622570103325    0.735358779512858  0.0000
  Ge     Ge        0.846910565046184    0.643341247126735    0.733306707069920  0.0000
  Ge     Ge        0.638731176325071    0.320071325222076    0.730974310051608  0.0000
  Ge     Ge        0.172853392233052    0.712859296048141    0.294811556757341  0.0000
  Ge     Ge        0.643597126288080    0.315505546737425    0.046911210019151  0.0000
  Ge     Ge        0.852257948781337    0.625298618963474    0.050282940024644  0.0000
  Ge     Ge        0.323224736334655    0.219485244368328    0.987457010959496  0.0000
  Ge     Ge        0.170286296480146    0.697606976639780    0.980758364569744  0.0000
  Ge     Ge        0.352918739384981    0.618192000008857    0.977184572351195  0.0000
  Ge     Ge        0.672398080907410    0.717167268453021    0.051668389016082  0.0000
  Ge     Ge        0.824188689316515    0.225388442799341    0.043344137916012  0.0000
  Si     Si        0.544801500146316    0.007301811442805    0.663461366633818  0.0000
  Si     Si        0.327671613435619    0.235026484560768    0.296732950765864  0.0000
  Si     Si        0.146065768521577    0.300702806752421    0.990802955515583  0.0000
  O1     O1        0.088256211843987    0.200128580278904    0.391764865284560  0.0000
  O1     O1        0.418043874819458    0.745220190236422    0.384933699517807  0.0000
  O1     O1        0.867062762612174    0.096097912257201    0.630849791421887  0.0000
  O3     O3        0.613585350836412    0.870310273541139    0.641415766099297  0.0000
  O1     O1        0.913351045583147    0.753556198874182    0.650481894408856  0.0000
  O3     O3        0.574369050018944    0.197169616484329    0.643725020335165  0.0000
  O1     O1        0.126042175305429    0.853830412534782    0.394334917404055  0.0000
  O3     O3        0.370628426585304    0.094451836265213    0.385239464246709  0.0000
  O1     O1        0.972974847160599    0.961506198692031    0.458043446583571  0.0000
  O3     O3        0.471810701706008    0.968562548634530    0.575080621710783  0.0000
  O1     O1        0.026277493601130    0.984413585289343    0.208810069784720  0.0000
  O1     O1        0.523967501394726    0.998891515766874    0.325355526167697  0.0000
  O1     O1        0.022302323247332    0.009379594876505    0.706163925412951  0.0000
  O3     O3        0.520498887158294    0.988372429803875    0.814599557428997  0.0000
  O1     O1        0.577851297091025    0.208835742617739    0.132774487321221  0.0000
  O1     O1        0.917772707144347    0.735388525237400    0.139584163574451  0.0000
  O1     O1        0.368577201683091    0.068941969086646    0.897099802957004  0.0000
  O1     O1        0.124310003095252    0.838192561391228    0.877333680103952  0.0000
  O1     O1        0.414751183747350    0.730153317155208    0.884704133530729  0.0000
  O3     O3        0.084263566731172    0.195965746952926    0.910537831350207  0.0000
  O1     O1        0.630718126559459    0.866623590300886    0.149949472570235  0.0000
  O1     O1        0.874529057710639    0.080286778952163    0.135428643057305  0.0000
  O1     O1        0.478752664480105    0.940818217260813    0.070662297452156  0.0000
  O1     O1        0.976553136089061    0.943987561529101    0.952947435510541  0.0000
  O1     O1        0.156990644381690    0.513143730862946    0.358043873567659  0.0000
  O3     O3        0.343562553685055    0.425421412460548    0.349066993502878  0.0000
  O1     O1        0.834180617661330    0.443871852388997    0.668245143818975  0.0000
  O1     O1        0.646888762103648    0.521652655904408    0.670905530692560  0.0000
  O3     O3        0.237904525621153    0.203669571013240    0.300789770320307  0.0000
  O1     O1        0.269042591600772    0.739577201226060    0.292454675423137  0.0000
  O1     O1        0.724843270221439    0.210495337201792    0.729462567201040  0.0000
  O1     O1        0.760307703041963    0.754050487622487    0.730667850877495  0.0000
  O3     O3        0.119838672973954    0.324112474849126    0.139088325349362  0.0000
  O1     O1        0.387645414549432    0.615467709375650    0.135861105041979  0.0000
  O1     O1        0.855448219179314    0.218151529238112    0.884922907398910  0.0000
  O1     O1        0.635494767939865    0.732533085239584    0.894836806468984  0.0000
  O1     O1        0.878926712470399    0.609299395317207    0.889851294535474  0.0000
  O1     O1        0.610669525499529    0.342696326471548    0.889338906762003  0.0000
  O1     O1        0.137981914696206    0.728378406753328    0.136304926162273  0.0000
  O3     O3        0.356212222775092    0.216794471018426    0.148528724916347  0.0000
  O1     O1        0.658056263496098    0.514341726247590    0.110308774869823  0.0000
  O1     O1        0.839504701216335    0.425928847656886    0.108729813215657  0.0000
  O1     O1        0.343077042160771    0.415262271934070    0.922168125655469  0.0000
  O3     O3        0.156060118346447    0.487528401684956    0.931028012636861  0.0000
  O1     O1        0.727828582026326    0.196455922744043    0.044308921868629  0.0000
  O1     O1        0.768323089827899    0.745595982824910    0.047108918910776  0.0000
  O3     O3        0.226004866035225    0.193295340484928    0.986472433022342  0.0000
  O1     O1        0.266260721562367    0.726889856698360    0.979421401796859  0.0000
