data_c00177.vasp
_audit_creation_method             Generated by GULP
_audit_author_name                 Salvador R. G. Balestra
_symmetry_space_group_name_H-M     'P 1             '
_symmetry_Int_Tables_number        1

loop_
_symmetry_equiv_pos_site_id
_symmetry_equiv_pos_as_xyz
_cell_length_a                       17.8386
_cell_length_b                        7.8428
_cell_length_c                       10.3968
_cell_angle_alpha                   91.1518
_cell_angle_beta                    90.1031
_cell_angle_gamma                   89.3572

loop_
_atom_site_label
_atom_site_type_symbol
_atom_site_fract_x
_atom_site_fract_y
_atom_site_fract_z
_atom_site_charge
  Ge     Ge        0.052090000000021    0.000000000000000    0.372269999999958  0.0000
  Ge     Ge        0.445076217417630    0.023835945752797    0.351228242764761  0.0000
  Ge     Ge        0.945500736955476    0.985214452459104    0.622720689412948  0.0000
  Ge     Ge        0.548393857596490    0.019319235251195    0.093601038924088  0.0000
  Ge     Ge        0.942684817287857    0.988253633184620    0.128201969074917  0.0000
  Ge     Ge        0.442137858694494    0.008354284753842    0.842917927296452  0.0000
  Ge     Ge        0.048937630853508    0.988704743984620    0.879584010215977  0.0000
  Ge     Ge        0.166857100074721    0.289099391390647    0.264781475069166  0.0000
  Ge     Ge        0.326744514288184    0.745010017792811    0.263347912548187  0.0000
  Ge     Ge        0.823527938918200    0.270183290775565    0.694468710532175  0.0000
  Ge     Ge        0.663466873508032    0.736061081081178    0.708223861242414  0.0000
  Ge     Ge        0.843075759793075    0.677493213203295    0.698510852366323  0.0000
  Ge     Ge        0.643298301314557    0.329873094217537    0.701021446652738  0.0000
  Ge     Ge        0.345709401202590    0.336146556465375    0.271003585263173  0.0000
  Ge     Ge        0.644247249268662    0.334328074477810    0.013561826165241  0.0000
  Ge     Ge        0.849239834689956    0.673184096338444    0.012998720367037  0.0000
  Ge     Ge        0.149626854845333    0.671742717636006    0.947186415743726  0.0000
  Ge     Ge        0.328219969584147    0.723792354894913    0.952535359451320  0.0000
  Ge     Ge        0.170103800381859    0.266663932954664    0.953381963413329  0.0000
  Ge     Ge        0.670363880354182    0.736933037805995    0.022475908267046  0.0000
  Ge     Ge        0.823409981851223    0.265677553847054    0.006568642812533  0.0000
  Si     Si        0.546702122757954    0.022820550934199    0.598585129589289  0.0000
  Si     Si        0.151244744251537    0.690511378280247    0.254163621331686  0.0000
  Si     Si        0.345922686067639    0.318386174048162    0.964484374216819  0.0000
  O1     O1        0.113039444030381    0.165865548301909    0.360861719990378  0.0000
  O1     O1        0.371881680584178    0.883725156675558    0.364206275004994  0.0000
  O1     O1        0.876181907251379    0.135907303393763    0.598408931867513  0.0000
  O3     O3        0.611180706154059    0.885400046374625    0.627642749868591  0.0000
  O1     O1        0.904824173365871    0.788567097637620    0.607353356424584  0.0000
  O3     O3        0.579322279720343    0.211815919682780    0.613003756202844  0.0000
  O3     O3        0.092536215927409    0.804207217816322    0.334484748961620  0.0000
  O1     O1        0.408987424979943    0.226860424563916    0.362643037648917  0.0000
  O1     O1        0.023477842075676    0.999519991602233    0.529951627122884  0.0000
  O3     O3        0.519453252811001    0.992169432779182    0.452506620971870  0.0000
  O1     O1        0.971431067016946    0.021515584180603    0.284174008752314  0.0000
  O1     O1        0.477434815209163    0.986365359806371    0.197198663688227  0.0000
  O1     O1        0.975550011081559    0.018724945196229    0.779439374115458  0.0000
  O3     O3        0.472931173219434    0.004224427757406    0.685420002965770  0.0000
  O1     O1        0.582328440986187    0.223210669520518    0.104419551657032  0.0000
  O1     O1        0.915226256931078    0.780846657678023    0.100552039321630  0.0000
  O3     O3        0.403754587415508    0.207270867397156    0.880229569185675  0.0000
  O1     O1        0.083861723966748    0.783614264520438    0.863924757874040  0.0000
  O1     O1        0.378054830293339    0.847461128006960    0.851420835305482  0.0000
  O1     O1        0.123845322092640    0.123669493869672    0.858656859473999  0.0000
  O1     O1        0.622427191710195    0.879700166814591    0.116728378848212  0.0000
  O1     O1        0.867373626068358    0.120267545823465    0.100486879239210  0.0000
  O1     O1        0.517405714779346    0.973974822244124    0.939449988206687  0.0000
  O1     O1        0.017966454629907    0.032737171894700    0.033504474110654  0.0000
  O3     O3        0.159621453442441    0.503240573345066    0.312112997332708  0.0000
  O1     O1        0.341634480249965    0.543501609269569    0.320962926094377  0.0000
  O1     O1        0.833273032191909    0.474654748750593    0.639698492471351  0.0000
  O1     O1        0.649832085497821    0.533352101871102    0.644818967638002  0.0000
  O1     O1        0.260167229015021    0.238431999550307    0.279678236185639  0.0000
  O3     O3        0.231090285225685    0.785126109052057    0.257123897275432  0.0000
  O1     O1        0.729283987235084    0.228486116901811    0.692645287655135  0.0000
  O1     O1        0.757152139319631    0.781344554154174    0.698552297401315  0.0000
  O1     O1        0.137904126496370    0.260162188882118    0.109259280595005  0.0000
  O1     O1        0.358482084343685    0.757967691688520    0.107515156000295  0.0000
  O1     O1        0.855095862069788    0.256326013110376    0.850568627154817  0.0000
  O1     O1        0.637875731959859    0.736214446919782    0.866212531286186  0.0000
  O1     O1        0.876013678890575    0.670639328382872    0.854045932879398  0.0000
  O1     O1        0.612260565838870    0.340176590248803    0.857095652159553  0.0000
  O3     O3        0.122940789733436    0.671519167741490    0.108068448183724  0.0000
  O3     O3        0.374806388648214    0.327520523465197    0.111072644020112  0.0000
  O1     O1        0.656549290047821    0.533317096233538    0.077938900078609  0.0000
  O1     O1        0.839580347078650    0.469566234709472    0.065683647822785  0.0000
  O3     O3        0.337743359085937    0.508119686646266    0.911391228908013  0.0000
  O1     O1        0.154504937126122    0.466221981049511    0.892015691658025  0.0000
  O1     O1        0.729143036891296    0.227516309441210    0.006090937119970  0.0000
  O1     O1        0.764178174550154    0.778850929459738    0.023316426669516  0.0000
  O3     O3        0.265580585760954    0.226077385754179    0.960217368625881  0.0000
  O1     O1        0.234688463376221    0.770997586615661    0.938484517401966  0.0000
