data_c00127.vasp
_audit_creation_method             Generated by GULP
_audit_author_name                 Salvador R. G. Balestra
_symmetry_space_group_name_H-M     'P 1             '
_symmetry_Int_Tables_number        1

loop_
_symmetry_equiv_pos_site_id
_symmetry_equiv_pos_as_xyz
_cell_length_a                       17.7839
_cell_length_b                        7.8669
_cell_length_c                       10.4162
_cell_angle_alpha                   89.9438
_cell_angle_beta                    90.8198
_cell_angle_gamma                   89.8106

loop_
_atom_site_label
_atom_site_type_symbol
_atom_site_fract_x
_atom_site_fract_y
_atom_site_fract_z
_atom_site_charge
  Ge     Ge        0.052090000000021    0.000000000000000    0.372269999999958  0.0000
  Ge     Ge        0.448780717370209    0.968938607759359    0.332868318642964  0.0000
  Ge     Ge        0.944637542758008    0.995464773043203    0.621406919008613  0.0000
  Ge     Ge        0.553758517829756    0.975844211742026    0.585639012857485  0.0000
  Ge     Ge        0.544441713020981    0.976845553346397    0.071442695662705  0.0000
  Ge     Ge        0.943969103302964    0.998953979593741    0.119231031187053  0.0000
  Ge     Ge        0.437016276306883    0.968744912461523    0.819178059604069  0.0000
  Ge     Ge        0.148311634854834    0.309996945785390    0.260728145323662  0.0000
  Ge     Ge        0.349539757315216    0.657045328419333    0.249750669256276  0.0000
  Ge     Ge        0.841455642060499    0.309314577900361    0.689942556715371  0.0000
  Ge     Ge        0.825505952622378    0.709835374124509    0.691759534716965  0.0000
  Ge     Ge        0.170164688744858    0.715417727414096    0.255294432188669  0.0000
  Ge     Ge        0.328052389414339    0.248228215427020    0.253131162724804  0.0000
  Ge     Ge        0.667837878925865    0.253932170096007    0.003356118639894  0.0000
  Ge     Ge        0.824658996658986    0.717743841340847    0.003135444435327  0.0000
  Ge     Ge        0.321214085988264    0.247955617897996    0.942116167908991  0.0000
  Ge     Ge        0.160937720881931    0.708897368417048    0.943348973274776  0.0000
  Ge     Ge        0.342582345041167    0.656573322901884    0.937346103126266  0.0000
  Ge     Ge        0.139984361400658    0.304475347696632    0.949867152386707  0.0000
  Ge     Ge        0.645180784354213    0.663102347521730    0.000312867509731  0.0000
  Ge     Ge        0.846719336911697    0.310784740971684    0.005473946236086  0.0000
  Si     Si        0.045175735007638    0.990779792486238    0.874418551083751  0.0000
  Si     Si        0.647558956313188    0.664209404436027    0.698326306672710  0.0000
  Si     Si        0.664254558638570    0.266642263852470    0.698660926748928  0.0000
  O1     O1        0.086432520634268    0.201631090848518    0.354501893029739  0.0000
  O1     O1        0.411782014688900    0.768312465528163    0.344070637599251  0.0000
  O1     O1        0.901591121309758    0.189170413166696    0.601232760129915  0.0000
  O3     O3        0.593693847846432    0.776288205443041    0.607673561055219  0.0000
  O1     O1        0.874104061432174    0.848582314876456    0.599130670527547  0.0000
  O3     O3        0.615047549448434    0.142975978989320    0.609963599738484  0.0000
  O1     O1        0.123262251773609    0.856990879907794    0.348758553011137  0.0000
  O1     O1        0.378475725919387    0.117281357297251    0.353476780660872  0.0000
  O1     O1        0.020273471736982    0.971858938601687    0.526170839454135  0.0000
  O1     O1        0.527035791575695    0.990672385132160    0.426720946545142  0.0000
  O1     O1        0.975476432811203    0.969687746958731    0.273353002012952  0.0000
  O1     O1        0.473721268565181    0.004705738942108    0.175276728636902  0.0000
  O3     O3        0.974929248713579    0.969742579916121    0.779894626518771  0.0000
  O1     O1        0.470704885395596    0.989619165223998    0.666060933951792  0.0000
  O1     O1        0.616937255678066    0.119703517373386    0.094573057433050  0.0000
  O1     O1        0.871003422017376    0.860662933479199    0.097086857980428  0.0000
  O1     O1        0.363521181482257    0.107395101262474    0.841684637718888  0.0000
  O3     O3        0.110303342307478    0.851811326289847    0.850068875713221  0.0000
  O1     O1        0.404023372845727    0.766296848350057    0.844231007800976  0.0000
  O3     O3        0.078561919776829    0.180008843885817    0.860567848797853  0.0000
  O1     O1        0.580955622845962    0.774304380980604    0.086359938139398  0.0000
  O1     O1        0.912882318366538    0.203321964475902    0.094085050470781  0.0000
  O1     O1        0.511436445914161    0.014842781112970    0.918343601914470  0.0000
  O3     O3        0.018640087066649    0.957244515524032    0.019708492194548  0.0000
  O1     O1        0.160286902536796    0.512452676384738    0.316124792900697  0.0000
  O1     O1        0.340417093589309    0.454829797836410    0.304985957623175  0.0000
  O1     O1        0.840308950506252    0.510553333842286    0.630184448301656  0.0000
  O2     O2        0.654071931466733    0.465578329117739    0.656104850712114  0.0000
  O1     O1        0.233537565809391    0.205408942968160    0.258053096545908  0.0000
  O1     O1        0.264030706189308    0.761760562208704    0.251583987130168  0.0000
  O3     O3        0.751813746930896    0.220790907413306    0.687402608731772  0.0000
  O3     O3        0.729656651669302    0.748245143864695    0.694479787445422  0.0000
  O1     O1        0.111544333556292    0.313657909138997    0.106650320491918  0.0000
  O1     O1        0.377855521610824    0.656637311305865    0.092169114776308  0.0000
  O1     O1        0.872124221698555    0.313175182996744    0.846925109656686  0.0000
  O3     O3        0.614609002282231    0.671167007227269    0.840453251520062  0.0000
  O1     O1        0.856472582817192    0.722880416292036    0.848317150435614  0.0000
  O3     O3        0.638060905895897    0.243645748225464    0.843769367636311  0.0000
  O1     O1        0.134690427372848    0.715727488534589    0.101261181222220  0.0000
  O1     O1        0.356952690198376    0.234125069204642    0.096037950436843  0.0000
  O1     O1        0.653298954997643    0.460027629828031    0.054286359744218  0.0000
  O1     O1        0.837999185931292    0.514078077520800    0.060924287451694  0.0000
  O1     O1        0.333427128686472    0.451639325577072    0.885070128082296  0.0000
  O1     O1        0.144397055809751    0.505378568585304    0.887518627465530  0.0000
  O1     O1        0.761454467606465    0.208048713415073    0.014631584262609  0.0000
  O1     O1        0.730517200542214    0.763721745614558    0.006293319675779  0.0000
  O1     O1        0.226666334466257    0.208403704524035    0.948988749346815  0.0000
  O1     O1        0.255081240762997    0.751933904227516    0.934909639082947  0.0000
