data_c00193.vasp
_audit_creation_method             Generated by GULP
_audit_author_name                 Salvador R. G. Balestra
_symmetry_space_group_name_H-M     'P 1             '
_symmetry_Int_Tables_number        1

loop_
_symmetry_equiv_pos_site_id
_symmetry_equiv_pos_as_xyz
_cell_length_a                       17.6480
_cell_length_b                        7.8208
_cell_length_c                       10.2205
_cell_angle_alpha                   89.9322
_cell_angle_beta                    90.4688
_cell_angle_gamma                   88.9698

loop_
_atom_site_label
_atom_site_type_symbol
_atom_site_fract_x
_atom_site_fract_y
_atom_site_fract_z
_atom_site_charge
  Ge     Ge        0.052090000000021    0.000000000000000    0.372269999999958  0.0000
  Ge     Ge        0.449512977040260    0.952549565189867    0.416013874025404  0.0000
  Ge     Ge        0.944104829444324    0.963318484978607    0.619747836112047  0.0000
  Ge     Ge        0.554786814156074    0.004745974450253    0.165059281381022  0.0000
  Ge     Ge        0.953462830629265    0.943199592150422    0.110349812122933  0.0000
  Ge     Ge        0.450933400113213    0.938022574297207    0.909100858068571  0.0000
  Ge     Ge        0.059578197997292    0.998370980680335    0.860213081389543  0.0000
  Ge     Ge        0.148391834672363    0.314173714437822    0.298305200290501  0.0000
  Ge     Ge        0.355845281736034    0.638657835102116    0.293597373120805  0.0000
  Ge     Ge        0.827694879483247    0.259201254395015    0.724284047895965  0.0000
  Ge     Ge        0.670082838108568    0.726732171764276    0.735875453745418  0.0000
  Ge     Ge        0.645955474107754    0.326939081470864    0.724107516283275  0.0000
  Ge     Ge        0.175500822200527    0.720589011227276    0.293056152560133  0.0000
  Ge     Ge        0.327596758887040    0.233828153969601    0.302800764359706  0.0000
  Ge     Ge        0.648869292399254    0.315745068924756    0.042658190968407  0.0000
  Ge     Ge        0.852416366505443    0.632237995626128    0.049966761406605  0.0000
  Ge     Ge        0.328205669817909    0.222821790444131    0.986471005964011  0.0000
  Ge     Ge        0.174972888249951    0.703507351228569    0.977280789333612  0.0000
  Ge     Ge        0.355039260825674    0.623193761820498    0.974755741888535  0.0000
  Ge     Ge        0.675246156931908    0.719823625210111    0.054230689830922  0.0000
  Ge     Ge        0.827840108142738    0.228187608125045    0.040112508861029  0.0000
  Si     Si        0.552221187719898    0.010926838952155    0.664136812790755  0.0000
  Si     Si        0.847679455480352    0.654568108772522    0.737454473700763  0.0000
  Si     Si        0.151496069504732    0.303613394673810    0.988280072802946  0.0000
  O1     O1        0.083716867735910    0.205718694791097    0.389221611655026  0.0000
  O1     O1        0.422741677555888    0.748040188515132    0.380768938258023  0.0000
  O1     O1        0.876993280808535    0.123228486941445    0.624205222941720  0.0000
  O3     O3        0.623053232553486    0.880762880821565    0.643802440124897  0.0000
  O3     O3        0.909090892072400    0.766732868071437    0.663689972074082  0.0000
  O3     O3        0.580687228109269    0.202410365381069    0.640617552935805  0.0000
  O1     O1        0.127171254555359    0.858511803342080    0.392711724811698  0.0000
  O1     O1        0.373336743582715    0.089286566776267    0.402247009791244  0.0000
  O1     O1        0.973952995159826    0.951522360230012    0.459139428091464  0.0000
  O3     O3        0.480346089684477    0.961931684470998    0.578189787391139  0.0000
  O1     O1        0.028191024937437    0.984094317693175    0.207722259550372  0.0000
  O1     O1        0.524818785809662    0.012700662471397    0.324071407357655  0.0000
  O1     O1        0.026658331699458    0.009323435507104    0.701537913439119  0.0000
  O3     O3        0.526820653958387    0.993542801967426    0.815896534851177  0.0000
  O1     O1        0.580946736067479    0.208547020470016    0.124686728990241  0.0000
  O1     O1        0.921082773626216    0.738145040995092    0.132742591650074  0.0000
  O1     O1        0.374103390999843    0.075892294505410    0.892195604493443  0.0000
  O1     O1        0.127793824843984    0.839810044638054    0.872961530020949  0.0000
  O1     O1        0.418651078940421    0.734869962409205    0.883446772059565  0.0000
  O3     O3        0.092830965459785    0.198592558999890    0.901731709669386  0.0000
  O1     O1        0.629890883894477    0.863428379467908    0.152661399372749  0.0000
  O1     O1        0.878359397441680    0.084752987826822    0.132093132244925  0.0000
  O1     O1        0.480150293167613    0.941909672853556    0.070306744693132  0.0000
  O1     O1        0.981087971840907    0.954159373786456    0.949414946227113  0.0000
  O1     O1        0.160456297248986    0.516795680689889    0.352678876704334  0.0000
  O1     O1        0.342188855944643    0.439089062398093    0.357789460355282  0.0000
  O3     O3        0.838298091961574    0.469364832294155    0.671382724355506  0.0000
  O1     O1        0.650896234545395    0.531549257372988    0.665682621422401  0.0000
  O1     O1        0.232209290314211    0.198347066819731    0.304243556312462  0.0000
  O1     O1        0.271311225896696    0.753782309965049    0.294017928212534  0.0000
  O1     O1        0.732264333722504    0.222551714971210    0.717816536356347  0.0000
  O3     O3        0.767254293875426    0.756902446309448    0.734779556660738  0.0000
  O3     O3        0.120415450353690    0.326372803455840    0.134643306413369  0.0000
  O1     O1        0.384826933075763    0.610249414632532    0.135579499708853  0.0000
  O1     O1        0.859540835619846    0.221932294682564    0.880801169932864  0.0000
  O1     O1        0.641362795071465    0.737951508081116    0.895770525105990  0.0000
  O3     O3        0.874324604193335    0.615879448826834    0.884686414934231  0.0000
  O1     O1        0.619707328870859    0.349549578213917    0.884098439745316  0.0000
  O1     O1        0.142751908696395    0.735291338716529    0.133431830595019  0.0000
  O1     O1        0.361002833010549    0.210811968293009    0.145507569777089  0.0000
  O1     O1        0.662804653430565    0.513464155598646    0.109410922207872  0.0000
  O1     O1        0.841318057250569    0.429850572679291    0.105585873406777  0.0000
  O1     O1        0.345735023464075    0.420114138587134    0.918632766843486  0.0000
  O3     O3        0.163535599012441    0.491353648494260    0.929177599419965  0.0000
  O1     O1        0.731943658674782    0.195417599150674    0.041251673551373  0.0000
  O1     O1        0.770605634735887    0.754668186696226    0.057794663614359  0.0000
  O3     O3        0.230993690332025    0.197279106937732    0.991921954858411  0.0000
  O1     O1        0.270377429475046    0.737055173956163    0.973611066981383  0.0000
