data_c00114.vasp
_audit_creation_method             Generated by GULP
_audit_author_name                 Salvador R. G. Balestra
_symmetry_space_group_name_H-M     'P 1             '
_symmetry_Int_Tables_number        1

loop_
_symmetry_equiv_pos_site_id
_symmetry_equiv_pos_as_xyz
_cell_length_a                       17.6030
_cell_length_b                        7.8601
_cell_length_c                       10.3167
_cell_angle_alpha                   89.0333
_cell_angle_beta                    89.8493
_cell_angle_gamma                   91.4840

loop_
_atom_site_label
_atom_site_type_symbol
_atom_site_fract_x
_atom_site_fract_y
_atom_site_fract_z
_atom_site_charge
  Ge     Ge        0.052090000000021    0.000000000000000    0.372269999999958  0.0000
  Ge     Ge        0.448178276380050    0.054166041705202    0.369613870204394  0.0000
  Ge     Ge        0.950867420221314    0.052074402087555    0.631306366116519  0.0000
  Ge     Ge        0.553740295287287    0.006346745574584    0.620504958003524  0.0000
  Ge     Ge        0.557065316082533    0.997964437106108    0.125537055565677  0.0000
  Ge     Ge        0.945886668912033    0.056539746622831    0.122151025912813  0.0000
  Ge     Ge        0.451908486380465    0.067690469186608    0.875836023135908  0.0000
  Ge     Ge        0.174457598609988    0.288574369127983    0.261005741283910  0.0000
  Ge     Ge        0.326471705796638    0.769503065478931    0.258166657738684  0.0000
  Ge     Ge        0.856090000124999    0.370076639285005    0.699634971530867  0.0000
  Ge     Ge        0.653393152041502    0.692137970840589    0.690654636065949  0.0000
  Ge     Ge        0.675161354181888    0.291868686382105    0.693850518238020  0.0000
  Ge     Ge        0.144982532993732    0.687799970968209    0.259267615697294  0.0000
  Ge     Ge        0.355332536330458    0.369435141098210    0.252845453638917  0.0000
  Ge     Ge        0.676032556441135    0.286185054803989    0.008021619890735  0.0000
  Ge     Ge        0.829496962091290    0.759750750970584    0.007882922815994  0.0000
  Ge     Ge        0.350156187330147    0.376319146632797    0.935836735584714  0.0000
  Ge     Ge        0.146331751816561    0.696970530560974    0.945171014523273  0.0000
  Ge     Ge        0.327715743208301    0.776722752018274    0.944613095025640  0.0000
  Ge     Ge        0.169158736613910    0.296454874847859    0.945465231628125  0.0000
  Ge     Ge        0.648167173847257    0.686114150475324    0.007825778519704  0.0000
  Si     Si        0.051714347263834    0.008123132245582    0.880669991827747  0.0000
  Si     Si        0.830907767713003    0.765936549770734    0.700066203662746  0.0000
  Si     Si        0.854489225374985    0.363911846098164    0.004399503009878  0.0000
  O1     O1        0.129366580954418    0.134653239738066    0.352861246386087  0.0000
  O1     O1        0.371806331445804    0.918296241589748    0.351083903770217  0.0000
  O1     O1        0.917916224379494    0.254962662907554    0.610265424603843  0.0000
  O1     O1        0.591453270880485    0.809080750744556    0.600790269088765  0.0000
  O3     O3        0.877305915830434    0.902680749731131    0.612755967903157  0.0000
  O1     O1        0.626140718052882    0.154716357332237    0.596628412271606  0.0000
  O1     O1        0.077771503418187    0.795275339461450    0.342744581065752  0.0000
  O1     O1        0.423703990971922    0.259335509461800    0.333774130092722  0.0000
  O1     O1        0.024283688803533    0.011216814820577    0.532199628190947  0.0000
  O1     O1        0.475333457048424    0.042454653118501    0.530182634491660  0.0000
  O1     O1        0.975682650396554    0.058142808695842    0.280038234859684  0.0000
  O1     O1        0.527276838556827    0.997803018399218    0.284125239740955  0.0000
  O3     O3        0.980068781639224    0.041308719333404    0.791995131022998  0.0000
  O1     O1        0.527432718864918    0.023646115188689    0.781650716891257  0.0000
  O1     O1        0.636025840888796    0.129127129245933    0.103422331427883  0.0000
  O1     O1        0.877661602240858    0.899213316519675    0.103668822721735  0.0000
  O1     O1        0.414766619725966    0.266077729195849    0.848711289435906  0.0000
  O3     O3        0.084374556404621    0.821503840479909    0.857416129779439  0.0000
  O1     O1        0.378623762189392    0.921385066405517    0.853443279339676  0.0000
  O3     O3        0.118186765713097    0.150074882761921    0.855599353279759  0.0000
  O1     O1        0.579953362072728    0.792988390778069    0.088655856709791  0.0000
  O3     O3        0.912216264795803    0.257838388205481    0.091094886249939  0.0000
  O1     O1        0.481921709422487    0.065908994216342    0.035068819317565  0.0000
  O3     O3        0.025544052901476    0.016431211434177    0.030805211014480  0.0000
  O1     O1        0.158207827445914    0.487550540278617    0.322269670795090  0.0000
  O1     O1        0.343644061298690    0.567277772368588    0.316717581309574  0.0000
  O3     O3        0.845534447544979    0.577145054993678    0.646090394963430  0.0000
  O1     O1        0.661014091001460    0.493743746498053    0.630921936995971  0.0000
  O1     O1        0.270342171144839    0.255665575586594    0.260428483200754  0.0000
  O1     O1        0.230447380617508    0.800213093710876    0.259992384228314  0.0000
  O1     O1        0.770798438819506    0.259999072588573    0.693409332513196  0.0000
  O3     O3        0.741430916916085    0.798728297786923    0.695139106830944  0.0000
  O1     O1        0.140892860421365    0.283594937980696    0.104657206277438  0.0000
  O1     O1        0.360405002543836    0.788214484130892    0.101851058501940  0.0000
  O3     O3        0.886834762939870    0.378847920492080    0.858741677488297  0.0000
  O1     O1        0.622135316532099    0.673437360495388    0.848029445626132  0.0000
  O3     O3        0.859092759957282    0.780136161837944    0.848294814013015  0.0000
  O1     O1        0.642686834239633    0.273814648334584    0.851800889445848  0.0000
  O1     O1        0.115538128479905    0.667006898621961    0.101774735049510  0.0000
  O1     O1        0.380472409436692    0.397107779598122    0.093458230488596  0.0000
  O1     O1        0.655396415784581    0.482434276239341    0.068267702013194  0.0000
  O3     O3        0.844310360330809    0.551308715389371    0.060146688181272  0.0000
  O1     O1        0.339291625281642    0.578536361669861    0.877990633996219  0.0000
  O1     O1        0.154970011750000    0.498701544903157    0.882135623933140  0.0000
  O3     O3        0.773490264911016    0.263612351268448    0.001630515681740  0.0000
  O1     O1        0.734299832572416    0.794003116988925    0.019116848506512  0.0000
  O1     O1        0.264834843156208    0.262596254122482    0.937379016255424  0.0000
  O1     O1        0.231875164422201    0.808310089765433    0.948017069684757  0.0000
