data_c00170.vasp
_audit_creation_method             Generated by GULP
_audit_author_name                 Salvador R. G. Balestra
_symmetry_space_group_name_H-M     'P 1             '
_symmetry_Int_Tables_number        1

loop_
_symmetry_equiv_pos_site_id
_symmetry_equiv_pos_as_xyz
_cell_length_a                       17.7919
_cell_length_b                        7.8399
_cell_length_c                       10.4056
_cell_angle_alpha                   89.5369
_cell_angle_beta                    90.4797
_cell_angle_gamma                   90.0983

loop_
_atom_site_label
_atom_site_type_symbol
_atom_site_fract_x
_atom_site_fract_y
_atom_site_fract_z
_atom_site_charge
  Ge     Ge        0.052090000000021    0.000000000000000    0.372269999999958  0.0000
  Ge     Ge        0.447721205016550    0.037437565424411    0.375795686285251  0.0000
  Ge     Ge        0.946441217219150    0.027307563901884    0.621007339245457  0.0000
  Ge     Ge        0.558717594211164    0.052745808413116    0.133355231386293  0.0000
  Ge     Ge        0.942963515302461    0.025284374352303    0.122932017940444  0.0000
  Ge     Ge        0.452667420307169    0.049235859078151    0.879368205699803  0.0000
  Ge     Ge        0.050314234961341    0.027636625547079    0.878425418798408  0.0000
  Ge     Ge        0.173295298212848    0.287231854409492    0.256075537194098  0.0000
  Ge     Ge        0.331903821460215    0.745981844137170    0.268920820810751  0.0000
  Ge     Ge        0.826500276370187    0.307485036281854    0.699882824081236  0.0000
  Ge     Ge        0.663952909402269    0.772127134075109    0.699257758510296  0.0000
  Ge     Ge        0.843285990487918    0.716064853078045    0.693028077408581  0.0000
  Ge     Ge        0.645851638549356    0.362766556641247    0.706444464636919  0.0000
  Ge     Ge        0.151005029923367    0.691072007697575    0.271314297393680  0.0000
  Ge     Ge        0.648224176943388    0.372602142221997    0.018306596579672  0.0000
  Ge     Ge        0.352135762623323    0.363038818722621    0.950449106953495  0.0000
  Ge     Ge        0.150917963668769    0.711131200988809    0.957501234671846  0.0000
  Ge     Ge        0.330602706864786    0.772421362856562    0.958587956774531  0.0000
  Ge     Ge        0.173981747405158    0.305767709125947    0.941982651696127  0.0000
  Ge     Ge        0.674187518845472    0.777303372586009    0.011448885322393  0.0000
  Ge     Ge        0.829132981787196    0.316857709173256    0.009409336311897  0.0000
  Si     Si        0.549289209139471    0.053760517964891    0.625515486035849  0.0000
  Si     Si        0.349372538816155    0.343727601611079    0.257260727377991  0.0000
  Si     Si        0.850056259527424    0.717340524763165    0.998493019140854  0.0000
  O1     O1        0.126382852293031    0.131763081023835    0.336957896599853  0.0000
  O1     O1        0.384424233557356    0.873710148839481    0.367712879423774  0.0000
  O1     O1        0.876577767519472    0.177334848232967    0.601315054569202  0.0000
  O3     O3        0.611874302144406    0.908910179073454    0.602339801114432  0.0000
  O1     O1        0.906360238006214    0.828935485867504    0.603418646540522  0.0000
  O3     O3        0.585960636147234    0.240366668960180    0.612731282699965  0.0000
  O1     O1        0.086585747241583    0.796647874807045    0.362485603731662  0.0000
  O3     O3        0.408250244113361    0.232909515420787    0.338853681642546  0.0000
  O1     O1        0.023040782259884    0.046824123700612    0.525495979173924  0.0000
  O3     O3        0.477279619991462    0.039198652461266    0.534970050774720  0.0000
  O1     O1        0.972383526213973    0.023833638431456    0.280243514696072  0.0000
  O1     O1        0.526590208371914    0.012364927055470    0.285217441161149  0.0000
  O1     O1        0.975929556696907    0.052752150189437    0.777940756983836  0.0000
  O3     O3        0.523668502995021    0.021598470251858    0.772419107675802  0.0000
  O1     O1        0.586251940860258    0.261230060779313    0.111564019998338  0.0000
  O3     O3        0.909825713944102    0.825550652739953    0.079021305228625  0.0000
  O1     O1        0.419370216101500    0.254725669393355    0.868858137033760  0.0000
  O1     O1        0.088226112837477    0.826876943667805    0.867598365281986  0.0000
  O1     O1        0.378061489453221    0.910894031126206    0.861724801306680  0.0000
  O1     O1        0.121247783031071    0.173362484553660    0.849140192309786  0.0000
  O1     O1        0.636805214605726    0.928435829183558    0.107095338965877  0.0000
  O1     O1        0.876479226353002    0.182433514428372    0.110897534935411  0.0000
  O1     O1        0.487578632177437    0.000684930616916    0.029476457715616  0.0000
  O1     O1        0.020516553997494    0.067161488899935    0.032581828731274  0.0000
  O1     O1        0.156685611592334    0.483445354862509    0.322799348505038  0.0000
  O3     O3        0.341259131590805    0.532315697735182    0.313800247641076  0.0000
  O1     O1        0.834815280411280    0.512467073870307    0.640019798539688  0.0000
  O1     O1        0.651659277672847    0.565729099001682    0.646270473557025  0.0000
  O3     O3        0.269265098177854    0.247489828825716    0.259009048640589  0.0000
  O1     O1        0.237873492507241    0.788536539507425    0.279785779413872  0.0000
  O1     O1        0.732148147840002    0.263444681744575    0.705656635992459  0.0000
  O1     O1        0.758009055051544    0.818972671477950    0.687974827607071  0.0000
  O1     O1        0.144746115415014    0.293784578443393    0.099142116084342  0.0000
  O1     O1        0.362666385689915    0.779525597987348    0.115466090366703  0.0000
  O1     O1        0.860430787073003    0.292126390329405    0.855379579084052  0.0000
  O1     O1        0.638271489527243    0.783615801991518    0.857727258751518  0.0000
  O3     O3        0.875944741112876    0.706233130518470    0.851150534520336  0.0000
  O1     O1        0.614848465154446    0.371762815875878    0.862071675318319  0.0000
  O1     O1        0.120488468235304    0.698545151524055    0.113804514011755  0.0000
  O3     O3        0.378306292218934    0.358443347286877    0.111809928137190  0.0000
  O1     O1        0.656119176176628    0.577024031597994    0.072915683790310  0.0000
  O3     O3        0.842449938323218    0.527906780370920    0.056325375182564  0.0000
  O1     O1        0.343881337714943    0.568737510295184    0.900154884355222  0.0000
  O1     O1        0.162395238902786    0.514444103263425    0.891976026959687  0.0000
  O1     O1        0.734907863861474    0.275867186079903    0.016868506273553  0.0000
  O3     O3        0.770002844476046    0.812443750646538    0.001685131563243  0.0000
  O1     O1        0.267749984122145    0.257955465345207    0.934312774683135  0.0000
  O1     O1        0.236431192033349    0.815746481204284    0.960935041311325  0.0000
