data_c00111.vasp
_audit_creation_method             Generated by GULP
_audit_author_name                 Salvador R. G. Balestra
_symmetry_space_group_name_H-M     'P 1             '
_symmetry_Int_Tables_number        1

loop_
_symmetry_equiv_pos_site_id
_symmetry_equiv_pos_as_xyz
_cell_length_a                       17.5429
_cell_length_b                        7.7955
_cell_length_c                       10.1439
_cell_angle_alpha                   91.0358
_cell_angle_beta                    91.6162
_cell_angle_gamma                   93.3186

loop_
_atom_site_label
_atom_site_type_symbol
_atom_site_fract_x
_atom_site_fract_y
_atom_site_fract_z
_atom_site_charge
  Ge     Ge        0.052090000000021    0.000000000000000    0.372269999999958  0.0000
  Ge     Ge        0.458194518363859    0.084174909584351    0.304851084275954  0.0000
  Ge     Ge        0.938535415609540    0.037019776432251    0.613075897663889  0.0000
  Ge     Ge        0.542794482739110    0.992231445545458    0.570671122794594  0.0000
  Ge     Ge        0.541697367762616    0.984748011919155    0.030122426506716  0.0000
  Ge     Ge        0.937952838144872    0.048108873707998    0.119093928238117  0.0000
  Ge     Ge        0.421053155835253    0.047961930335137    0.786390890540885  0.0000
  Ge     Ge        0.173699486302056    0.288766694196638    0.257731294823858  0.0000
  Ge     Ge        0.327010751597305    0.789419393669353    0.232168743969903  0.0000
  Ge     Ge        0.838226566356170    0.341920822721472    0.679913358722589  0.0000
  Ge     Ge        0.629957538990315    0.668757667872871    0.670506151700657  0.0000
  Ge     Ge        0.812159580734831    0.750499671951075    0.678383653287499  0.0000
  Ge     Ge        0.146174994689834    0.690968271250186    0.253363266976400  0.0000
  Ge     Ge        0.353849200950008    0.384439556583991    0.239835640874717  0.0000
  Ge     Ge        0.814858447349128    0.752290088493069    0.997280134169474  0.0000
  Ge     Ge        0.338066909566351    0.362127150328512    0.918649475362313  0.0000
  Ge     Ge        0.127466258570225    0.661984189608809    0.936945595926379  0.0000
  Ge     Ge        0.308771241590240    0.764477822907924    0.915333526668732  0.0000
  Ge     Ge        0.156408565619773    0.263189332531507    0.937538196113173  0.0000
  Ge     Ge        0.633216218477918    0.659853503405773    0.998292445247723  0.0000
  Ge     Ge        0.843350263845686    0.346932623838476    0.994694192247945  0.0000
  Si     Si        0.034584576469511    0.968226292680651    0.869848504794699  0.0000
  Si     Si        0.663949043776499    0.290594094342432    0.677041206433255  0.0000
  Si     Si        0.668868657197726    0.287355858377659    0.988252209616118  0.0000
  O1     O1        0.128154142278788    0.146018239420898    0.358764884030745  0.0000
  O1     O1        0.383241022957929    0.934025806009868    0.324063048443682  0.0000
  O1     O1        0.904347256451092    0.236060633066226    0.592037011902224  0.0000
  O1     O1        0.563848791799000    0.781861419898937    0.584961595600870  0.0000
  O1     O1        0.862682886321960    0.890655220925697    0.581823576898786  0.0000
  O3     O3        0.617252007516689    0.111126707631975    0.652859479193715  0.0000
  O1     O1        0.082475663857402    0.797898599918290    0.343322051413108  0.0000
  O1     O1        0.423683785232385    0.284509259998427    0.325068734249196  0.0000
  O1     O1        0.019634437290568    0.007604972179210    0.530689107058998  0.0000
  O1     O1        0.534099632483904    0.047029813179744    0.407355639879096  0.0000
  O1     O1        0.973312451051502    0.045765551549602    0.278108222387312  0.0000
  O1     O1        0.485778130682043    0.072625428353449    0.143051025690197  0.0000
  O3     O3        0.962014765955062    0.996494298194506    0.778791654291026  0.0000
  O1     O1        0.455122077580391    0.038090603984984    0.629637792795168  0.0000
  O3     O3        0.627947495761492    0.105618762778051    0.012168211758924  0.0000
  O1     O1        0.860142478548345    0.905935716775131    0.097896544196190  0.0000
  O1     O1        0.400593760912322    0.254890641473146    0.825150949336145  0.0000
  O3     O3        0.061875762542748    0.775887431178164    0.849616761082487  0.0000
  O1     O1        0.341854955852655    0.912998896922455    0.805608819639391  0.0000
  O3     O3        0.104450064181585    0.107140852649872    0.845518892928053  0.0000
  O1     O1        0.569284533902392    0.784863450439356    0.074784652173827  0.0000
  O1     O1        0.910366645196960    0.251849081124978    0.089966625176396  0.0000
  O1     O1        0.495331817986474    0.974882223351580    0.879790385372595  0.0000
  O3     O3        0.012257384679649    0.989767952642303    0.022477703213338  0.0000
  O1     O1        0.164619167521269    0.494987289118172    0.317302242562629  0.0000
  O1     O1        0.342872547038380    0.588743470740424    0.294177864894556  0.0000
  O1     O1        0.855984102425148    0.557964206815316    0.675742477752679  0.0000
  O3     O3        0.614802850501432    0.448199926735341    0.632370761145355  0.0000
  O1     O1        0.269557727720953    0.259556454824333    0.249952830362193  0.0000
  O1     O1        0.230667922017047    0.815339905366797    0.242481190972295  0.0000
  O3     O3        0.746346210822068    0.289676268153638    0.613025528409065  0.0000
  O1     O1        0.719974963464451    0.721627720874984    0.617550998888575  0.0000
  O1     O1        0.133671746104852    0.259239111451103    0.101092777307622  0.0000
  O1     O1        0.352830147176129    0.801862718842343    0.068712423633069  0.0000
  O1     O1        0.849817792687096    0.266905201930461    0.837070627641845  0.0000
  O1     O1        0.619928478117638    0.710716764972255    0.834643817404481  0.0000
  O1     O1        0.806601842118938    0.823241863815690    0.838666060872712  0.0000
  O2     O2        0.685930203776842    0.332208876946656    0.833312258323245  0.0000
  O1     O1        0.105673155466818    0.645625807826167    0.099683108876671  0.0000
  O1     O1        0.375049158991438    0.394532145388341    0.075131897025739  0.0000
  O3     O3        0.616563065210833    0.442012858800341    0.031400284081089  0.0000
  O1     O1        0.862626112299079    0.564867117393964    0.998208595563919  0.0000
  O1     O1        0.323906502813433    0.560864590221255    0.856045739436705  0.0000
  O1     O1        0.134954168887038    0.459973731338477    0.873422170090235  0.0000
  O3     O3        0.752425655985099    0.298937181245432    0.056207864376742  0.0000
  O1     O1        0.724870047332451    0.707196306115337    0.053828840162095  0.0000
  O1     O1        0.252520032571486    0.241566948423921    0.923913913434348  0.0000
  O1     O1        0.213420852739785    0.780275040677098    0.935670320604968  0.0000
