data_c00115.vasp
_audit_creation_method             Generated by GULP
_audit_author_name                 Salvador R. G. Balestra
_symmetry_space_group_name_H-M     'P 1             '
_symmetry_Int_Tables_number        1

loop_
_symmetry_equiv_pos_site_id
_symmetry_equiv_pos_as_xyz
_cell_length_a                       17.5996
_cell_length_b                        7.8499
_cell_length_c                       10.3087
_cell_angle_alpha                   89.6146
_cell_angle_beta                    89.8472
_cell_angle_gamma                   91.5252

loop_
_atom_site_label
_atom_site_type_symbol
_atom_site_fract_x
_atom_site_fract_y
_atom_site_fract_z
_atom_site_charge
  Ge     Ge        0.052090000000021    0.000000000000000    0.372269999999958  0.0000
  Ge     Ge        0.449470052149693    0.055372050260343    0.361930361980672  0.0000
  Ge     Ge        0.950149073155498    0.059246367490587    0.628785426093293  0.0000
  Ge     Ge        0.553665794075049    0.013289624660022    0.616585939491920  0.0000
  Ge     Ge        0.557849145407057    0.016884247849855    0.116914037059450  0.0000
  Ge     Ge        0.946061678053020    0.076644266072754    0.123905207324599  0.0000
  Ge     Ge        0.449837428470253    0.073770949328291    0.870978066744450  0.0000
  Ge     Ge        0.174858765697157    0.288984323905801    0.256811037334047  0.0000
  Ge     Ge        0.327052053977411    0.770106840916187    0.255575506543705  0.0000
  Ge     Ge        0.856568775180709    0.379823703626336    0.701305326409209  0.0000
  Ge     Ge        0.653262767445213    0.699919459671053    0.683602473836393  0.0000
  Ge     Ge        0.674399969508643    0.299060015441141    0.697578047803997  0.0000
  Ge     Ge        0.145357340117424    0.688878132345015    0.259525727767691  0.0000
  Ge     Ge        0.355416215471792    0.370137728290769    0.246088372129551  0.0000
  Ge     Ge        0.673102826073408    0.316116876290072    0.009028711273523  0.0000
  Ge     Ge        0.825758062067041    0.791030299265719    0.001376996501965  0.0000
  Ge     Ge        0.347845157912164    0.382555484540470    0.928175065390091  0.0000
  Ge     Ge        0.144412085865865    0.703192258938502    0.945470931086525  0.0000
  Ge     Ge        0.325888297417843    0.782741220659964    0.941893699491472  0.0000
  Ge     Ge        0.167378511745302    0.301847951787907    0.940837814731566  0.0000
  Ge     Ge        0.856960448909736    0.392612986008358    0.012627678467568  0.0000
  Si     Si        0.049012114039537    0.012935581315817    0.879566603974419  0.0000
  Si     Si        0.829231886790325    0.773363272170606    0.690506539797760  0.0000
  Si     Si        0.649054868775715    0.711022776680071    0.994893758845121  0.0000
  O1     O1        0.128688268662182    0.134647599734881    0.345708414230063  0.0000
  O1     O1        0.372864398721047    0.918298896492218    0.350013681037386  0.0000
  O1     O1        0.915545394949691    0.259936823285379    0.607956322917620  0.0000
  O1     O1        0.588568572302217    0.812123945577749    0.597745343924970  0.0000
  O3     O3        0.878059225351360    0.907120727943461    0.605241389894497  0.0000
  O1     O1        0.628587628239258    0.156696397960900    0.598783400305412  0.0000
  O1     O1        0.079036536378516    0.794736323215529    0.347625760898859  0.0000
  O1     O1        0.425105035398661    0.259398561291651    0.321763001400989  0.0000
  O1     O1        0.025451382988185    0.021687286544551    0.532147356720937  0.0000
  O1     O1        0.477609156701441    0.053675520231129    0.522375824995056  0.0000
  O1     O1        0.973782909222430    0.049580675711716    0.281445673469468  0.0000
  O1     O1        0.527240019582852    0.994037047342252    0.274730864973254  0.0000
  O3     O3        0.977224080623070    0.045289098636904    0.790826489650469  0.0000
  O1     O1        0.525451372914693    0.030954667829083    0.776611292116326  0.0000
  O1     O1        0.628290430073553    0.172038592432108    0.110309351050591  0.0000
  O1     O1        0.867237279203688    0.952424935981905    0.086126121143870  0.0000
  O1     O1        0.412503269339555    0.271561349273880    0.841404989697653  0.0000
  O3     O3        0.081700365617331    0.825698061387964    0.858064250850647  0.0000
  O1     O1        0.376123429239997    0.927325126517668    0.850363193084920  0.0000
  O3     O3        0.114901994053461    0.155382782105735    0.852050754809830  0.0000
  O3     O3        0.585434847660540    0.817551536017291    0.066005020791149  0.0000
  O1     O1        0.920720378647086    0.284809874999068    0.105249958855207  0.0000
  O1     O1        0.479675996674775    0.074670765610649    0.030194732268154  0.0000
  O3     O3        0.023209793837992    0.023209639382920    0.030027571137211  0.0000
  O1     O1        0.158783896842385    0.488120930069027    0.319986749341464  0.0000
  O1     O1        0.344137919050372    0.567822704980581    0.312765396895966  0.0000
  O3     O3        0.843765464124804    0.582288695845944    0.639777571469510  0.0000
  O1     O1        0.659046456572847    0.497505689625396    0.629738614138586  0.0000
  O1     O1        0.270595299239977    0.254846959474592    0.256114282621367  0.0000
  O1     O1        0.230944552558731    0.800583077377492    0.258802801123185  0.0000
  O1     O1        0.770184585026631    0.271598958354412    0.706817779907112  0.0000
  O3     O3        0.740342975049857    0.809504985542238    0.677093509584007  0.0000
  O1     O1        0.140539167973210    0.288320917899929    0.100838330031266  0.0000
  O1     O1        0.359612945811450    0.792485302723944    0.098585848985567  0.0000
  O1     O1        0.890975710922751    0.394194149164679    0.855930374801481  0.0000
  O3     O3        0.626769415093990    0.684526148253734    0.845417488468319  0.0000
  O3     O3        0.854058993896970    0.786756721284233    0.840608634296420  0.0000
  O1     O1        0.639665956674486    0.284178189232300    0.854416568950177  0.0000
  O1     O1        0.113892397532005    0.673627000304243    0.102270003043555  0.0000
  O1     O1        0.377462708973526    0.404013773170538    0.086359190705410  0.0000
  O3     O3        0.656921797721624    0.524556513853377    0.057975324545072  0.0000
  O1     O1        0.849131063326453    0.597536900306716    0.066941013940223  0.0000
  O1     O1        0.336323661525053    0.584733133779051    0.872117540709412  0.0000
  O1     O1        0.152469106082584    0.504587351602976    0.880567093113105  0.0000
  O1     O1        0.769228887796650    0.290535588389879    0.013953512170513  0.0000
  O3     O3        0.728536460555598    0.816953385182224    0.005722036292757  0.0000
  O1     O1        0.262675249034615    0.267385969824932    0.929158768138157  0.0000
  O1     O1        0.229889742782134    0.814774942049771    0.947616959989033  0.0000
