data_c00160.vasp
_audit_creation_method             Generated by GULP
_audit_author_name                 Salvador R. G. Balestra
_symmetry_space_group_name_H-M     'P 1             '
_symmetry_Int_Tables_number        1

loop_
_symmetry_equiv_pos_site_id
_symmetry_equiv_pos_as_xyz
_cell_length_a                       17.7724
_cell_length_b                        7.8485
_cell_length_c                       10.4874
_cell_angle_alpha                   89.5707
_cell_angle_beta                    90.0574
_cell_angle_gamma                   90.1434

loop_
_atom_site_label
_atom_site_type_symbol
_atom_site_fract_x
_atom_site_fract_y
_atom_site_fract_z
_atom_site_charge
  Ge     Ge        0.052090000000021    0.000000000000000    0.372269999999958  0.0000
  Ge     Ge        0.449965664466771    0.972733293536650    0.354985033223089  0.0000
  Ge     Ge        0.947129345656486    0.998731303721247    0.625093326095515  0.0000
  Ge     Ge        0.552386686412683    0.973782297789836    0.097620368222292  0.0000
  Ge     Ge        0.947748490245572    0.002909353153935    0.122941441366288  0.0000
  Ge     Ge        0.442975693926311    0.981309217403147    0.850192879254442  0.0000
  Ge     Ge        0.055398923941329    0.997416357656781    0.876396771650582  0.0000
  Ge     Ge        0.151620158405175    0.310390416520960    0.259914240757725  0.0000
  Ge     Ge        0.352578675837690    0.663007196199261    0.263292174676832  0.0000
  Ge     Ge        0.845235240368694    0.311105838227029    0.699664459122516  0.0000
  Ge     Ge        0.643200195125809    0.659916790400143    0.708176210958030  0.0000
  Ge     Ge        0.824072098293613    0.717107241823625    0.696166834474841  0.0000
  Ge     Ge        0.664802626782252    0.254666128871045    0.712934893157926  0.0000
  Ge     Ge        0.173307243844293    0.718480215452328    0.259542444276462  0.0000
  Ge     Ge        0.330522777156382    0.248744644731391    0.263074940838706  0.0000
  Ge     Ge        0.674316860390253    0.254212302119714    0.023559914456212  0.0000
  Ge     Ge        0.827036743587989    0.724540248121491    0.005419427173570  0.0000
  Ge     Ge        0.174707181612767    0.714993217546127    0.950171609385242  0.0000
  Ge     Ge        0.155543062261851    0.314473915852938    0.948660270364093  0.0000
  Ge     Ge        0.647670857947107    0.656124967769757    0.018250125175917  0.0000
  Ge     Ge        0.853604527732897    0.318013788854770    0.010947498852178  0.0000
  Si     Si        0.546931639659736    0.969742964287920    0.607869389753165  0.0000
  Si     Si        0.333553422754234    0.266028783542999    0.962569225275021  0.0000
  Si     Si        0.352911501675370    0.666828974907435    0.964199566408415  0.0000
  O1     O1        0.085210418106627    0.202751968932240    0.346308836308699  0.0000
  O1     O1        0.414340915825811    0.769725414243560    0.359358964003559  0.0000
  O1     O1        0.907055720062677    0.196636288526804    0.609335360135107  0.0000
  O3     O3        0.577081598943122    0.778605647298807    0.625954677792522  0.0000
  O1     O1        0.876455217422842    0.851512515017480    0.602627579776399  0.0000
  O3     O3        0.613558339788260    0.102350157111759    0.634095598518488  0.0000
  O1     O1        0.123088925140393    0.856420229059565    0.350423313904100  0.0000
  O1     O1        0.378094887712524    0.118381164067630    0.365552930799912  0.0000
  O1     O1        0.022647571205871    0.976784188724265    0.527425609167197  0.0000
  O3     O3        0.521414926856943    0.997801198839129    0.462341802114951  0.0000
  O1     O1        0.974620058096693    0.967955336502511    0.277904046155496  0.0000
  O1     O1        0.484595557083233    0.015721409961886    0.204949385073831  0.0000
  O1     O1        0.980540876994595    0.970502803019682    0.778763248605873  0.0000
  O3     O3        0.473321250151200    0.999015111102588    0.694127618702283  0.0000
  O1     O1        0.627411992086789    0.111565236736907    0.116187376108630  0.0000
  O1     O1        0.872313890278274    0.872279227080019    0.095023883693506  0.0000
  O3     O3        0.377724957901479    0.143430868617417    0.868205773774940  0.0000
  O1     O1        0.128969176141936    0.856703876141510    0.855145530426014  0.0000
  O3     O3        0.405719156231796    0.777743059439257    0.872478057934142  0.0000
  O1     O1        0.095653185703784    0.195720018519271    0.858393753484702  0.0000
  O1     O1        0.586433920440257    0.769592814098120    0.110204002749253  0.0000
  O1     O1        0.920498137446868    0.210783928073454    0.096310453736239  0.0000
  O1     O1        0.518996646785008    0.009454241198064    0.945132180903661  0.0000
  O1     O1        0.024223811384098    0.960325590295276    0.029571955191495  0.0000
  O1     O1        0.161925270383067    0.512803102084253    0.315787811549906  0.0000
  O1     O1        0.344016965737497    0.456785148088469    0.310262247581608  0.0000
  O1     O1        0.834649276927249    0.512454609062278    0.640486148352303  0.0000
  O1     O1        0.649787459428623    0.456129720759121    0.650627319659021  0.0000
  O1     O1        0.236416139154463    0.204584229060177    0.268629584125966  0.0000
  O1     O1        0.267411879034504    0.765819400908351    0.267404369046843  0.0000
  O1     O1        0.759064524632871    0.209316528870872    0.702300188261582  0.0000
  O1     O1        0.729443017600930    0.759598930015936    0.696272387350727  0.0000
  O1     O1        0.123233957336487    0.314058439429944    0.103103291744422  0.0000
  O3     O3        0.385648669125029    0.679098318349910    0.106731410257165  0.0000
  O1     O1        0.879691616955929    0.320406069185133    0.852969537600476  0.0000
  O1     O1        0.614486707394817    0.648292978881365    0.863885885602778  0.0000
  O1     O1        0.857306876718165    0.730546633400308    0.849958605048881  0.0000
  O1     O1        0.639861813009877    0.255429494630929    0.870000791667405  0.0000
  O1     O1        0.142546697078753    0.725169493574849    0.104558735998534  0.0000
  O3     O3        0.361650336459887    0.231902475012582    0.106107456160869  0.0000
  O1     O1        0.661091949799675    0.458065764962809    0.081103736085550  0.0000
  O1     O1        0.844191314886491    0.522085871198261    0.064474880545631  0.0000
  O2     O2        0.346842370864483    0.466776021337030    0.926422886446898  0.0000
  O1     O1        0.157718010612045    0.516259319938215    0.888887672877739  0.0000
  O1     O1        0.768700100165740    0.212483685038350    0.021468824767656  0.0000
  O1     O1        0.732428603690227    0.762958096137230    0.008058164246893  0.0000
  O3     O3        0.245271701640160    0.227208359257486    0.953244491418347  0.0000
  O3     O3        0.270563806582060    0.749675139165461    0.958605222628519  0.0000
