data_c00107.vasp
_audit_creation_method             Generated by GULP
_audit_author_name                 Salvador R. G. Balestra
_symmetry_space_group_name_H-M     'P 1             '
_symmetry_Int_Tables_number        1

loop_
_symmetry_equiv_pos_site_id
_symmetry_equiv_pos_as_xyz
_cell_length_a                       17.6476
_cell_length_b                        7.8158
_cell_length_c                       10.3080
_cell_angle_alpha                   90.4541
_cell_angle_beta                    90.4169
_cell_angle_gamma                   88.9623

loop_
_atom_site_label
_atom_site_type_symbol
_atom_site_fract_x
_atom_site_fract_y
_atom_site_fract_z
_atom_site_charge
  Ge     Ge        0.052090000000021    0.000000000000000    0.372269999999958  0.0000
  Ge     Ge        0.447631459023022    0.950945941924897    0.327442320625375  0.0000
  Ge     Ge        0.947782106178281    0.936837697382779    0.623466409768588  0.0000
  Ge     Ge        0.550649042599912    0.986922207479741    0.582567547718802  0.0000
  Ge     Ge        0.544361995448982    0.007257491638080    0.066139542454959  0.0000
  Ge     Ge        0.945174744994864    0.943705673781425    0.121129816614960  0.0000
  Ge     Ge        0.434995757319483    0.951184571156402    0.816832441285372  0.0000
  Ge     Ge        0.144315772543521    0.312972234192347    0.251296065803821  0.0000
  Ge     Ge        0.350896911677974    0.637164133115480    0.250106352813216  0.0000
  Ge     Ge        0.822032065121753    0.218034821924728    0.693690875829368  0.0000
  Ge     Ge        0.668566546332547    0.692053746513023    0.686292508675194  0.0000
  Ge     Ge        0.849816494149097    0.618312763010892    0.684103660350846  0.0000
  Ge     Ge        0.172099508186612    0.716091884704186    0.260081770804327  0.0000
  Ge     Ge        0.324027212553165    0.229119384263297    0.245233208163423  0.0000
  Ge     Ge        0.646184047018137    0.318664433457739    0.010016472928698  0.0000
  Ge     Ge        0.849458048047598    0.633279699740645    0.000422331424021  0.0000
  Ge     Ge        0.320945906559356    0.247294395939192    0.932296614821252  0.0000
  Ge     Ge        0.163341467161841    0.721206569047160    0.946724620253803  0.0000
  Ge     Ge        0.139934623165560    0.320852220867565    0.935696101928905  0.0000
  Ge     Ge        0.670394813143382    0.721870437316665    0.999715877855177  0.0000
  Ge     Ge        0.822823906835262    0.227706287561817    0.010738233618856  0.0000
  Si     Si        0.045803377324318    0.007829855045165    0.875474170514605  0.0000
  Si     Si        0.646105903827053    0.297730240616427    0.698519477116756  0.0000
  Si     Si        0.341472671332492    0.648390668463906    0.942880437521573  0.0000
  O1     O1        0.078062339522338    0.204619857434539    0.337055119690910  0.0000
  O1     O1        0.416753170361270    0.744238033327728    0.340687807019059  0.0000
  O1     O1        0.869377626874732    0.068559998496340    0.603157391632879  0.0000
  O1     O1        0.619047243777214    0.830023202315259    0.588033995602383  0.0000
  O1     O1        0.916359224171408    0.732248771442218    0.601686703078789  0.0000
  O3     O3        0.581555850269031    0.186667107494487    0.630486953263537  0.0000
  O1     O1        0.127907077933807    0.862208226778183    0.358620646611217  0.0000
  O1     O1        0.372151062133190    0.092040261029065    0.345101466164362  0.0000
  O1     O1        0.022118930302365    0.990995222745990    0.530870017486632  0.0000
  O1     O1        0.523441826371627    0.999158573281958    0.421161779928144  0.0000
  O1     O1        0.976265060860050    0.939892732041456    0.278816459538889  0.0000
  O1     O1        0.471498128872375    0.969391657806978    0.165488447585910  0.0000
  O3     O3        0.975768896312786    0.960148169505175    0.785781584060210  0.0000
  O1     O1        0.468325625926656    0.937260278102463    0.660596616429820  0.0000
  O1     O1        0.576536315411742    0.213183059060571    0.087445727737867  0.0000
  O1     O1        0.917675045217160    0.739823955846519    0.084728461824547  0.0000
  O1     O1        0.368081021301765    0.112856943583664    0.828095314791219  0.0000
  O3     O3        0.115968085630587    0.874077144605580    0.856574335243633  0.0000
  O3     O3        0.397898996829950    0.754543543080704    0.855587861218475  0.0000
  O3     O3        0.075377900229906    0.198343952763724    0.849645543466103  0.0000
  O1     O1        0.619888220217363    0.867030558155782    0.089272992130033  0.0000
  O1     O1        0.870925377146078    0.086832480509180    0.107805001102428  0.0000
  O1     O1        0.514070421377007    0.991538691374330    0.907491085579658  0.0000
  O3     O3        0.020256700401538    0.003126032657392    0.025662493509132  0.0000
  O1     O1        0.159160494703084    0.511642242608412    0.316962684945197  0.0000
  O1     O1        0.339684029304659    0.434320134727015    0.302706758038965  0.0000
  O1     O1        0.840691926156871    0.414450798753477    0.627004948037761  0.0000
  O3     O3        0.655643925385579    0.482030554328364    0.632528591756463  0.0000
  O1     O1        0.228198594020971    0.196032284871112    0.247517792304579  0.0000
  O1     O1        0.267194155868397    0.753254814604881    0.258158467187627  0.0000
  O3     O3        0.724743271600804    0.188933218123558    0.691248624148614  0.0000
  O1     O1        0.764021965613654    0.727309486444746    0.679349810160331  0.0000
  O1     O1        0.113607866245460    0.343724375657204    0.094979108654726  0.0000
  O3     O3        0.375837979584472    0.628879037541584    0.086929973886859  0.0000
  O1     O1        0.851948262915314    0.206249406106966    0.852547803151596  0.0000
  O1     O1        0.637920689566156    0.729273694017011    0.841527113429531  0.0000
  O1     O1        0.877952349900813    0.603211616591592    0.843495153362255  0.0000
  O3     O3        0.624965317206664    0.340815990144129    0.845950276843722  0.0000
  O1     O1        0.134808374404488    0.733013354011931    0.105457319260707  0.0000
  O1     O1        0.354942269774605    0.214059728918652    0.086613024929864  0.0000
  O1     O1        0.657216708225668    0.521639343701794    0.066255221274533  0.0000
  O1     O1        0.835893067837215    0.435062590965139    0.064475970917389  0.0000
  O3     O3        0.330473224813622    0.459219734841460    0.884889868410212  0.0000
  O1     O1        0.144415796309586    0.524618681668478    0.877511810214281  0.0000
  O1     O1        0.727325044707059    0.194133904257127    0.019883982672217  0.0000
  O1     O1        0.766375958539914    0.754021269989005    0.001001145386316  0.0000
  O1     O1        0.225474186762382    0.212732456516882    0.929968127407826  0.0000
  O3     O3        0.260575061209410    0.748685612470750    0.947940023695956  0.0000
