data_c00101.vasp
_audit_creation_method             Generated by GULP
_audit_author_name                 Salvador R. G. Balestra
_symmetry_space_group_name_H-M     'P 1             '
_symmetry_Int_Tables_number        1

loop_
_symmetry_equiv_pos_site_id
_symmetry_equiv_pos_as_xyz
_cell_length_a                       17.5657
_cell_length_b                        7.8482
_cell_length_c                       10.3194
_cell_angle_alpha                   90.9549
_cell_angle_beta                    89.8502
_cell_angle_gamma                   88.3050

loop_
_atom_site_label
_atom_site_type_symbol
_atom_site_fract_x
_atom_site_fract_y
_atom_site_fract_z
_atom_site_charge
  Ge     Ge        0.052090000000021    0.000000000000000    0.372269999999958  0.0000
  Ge     Ge        0.445007365049783    0.953460473789684    0.333730559469447  0.0000
  Ge     Ge        0.951850485024217    0.941504813924050    0.629081099916355  0.0000
  Ge     Ge        0.551174510989740    0.001041759400769    0.584077104331610  0.0000
  Ge     Ge        0.545881775087585    0.022705611119858    0.078212095612231  0.0000
  Ge     Ge        0.940499722419577    0.955475711515848    0.128226429084928  0.0000
  Ge     Ge        0.440966918351185    0.950206890600581    0.827593212274360  0.0000
  Ge     Ge        0.139580144312361    0.320853541005209    0.259586610970366  0.0000
  Ge     Ge        0.347322733143983    0.637817283290311    0.263585470398709  0.0000
  Ge     Ge        0.826932076024770    0.227658905308696    0.704711676549682  0.0000
  Ge     Ge        0.672902160187728    0.715336127935778    0.695197441104318  0.0000
  Ge     Ge        0.853036190401785    0.631447211610291    0.700164539198251  0.0000
  Ge     Ge        0.645876251253507    0.313722554557904    0.704273957578195  0.0000
  Ge     Ge        0.322367378328373    0.238551595396812    0.259368855534421  0.0000
  Ge     Ge        0.644026715201523    0.335634723022971    0.021299392186113  0.0000
  Ge     Ge        0.321027142971018    0.238794921461771    0.946193773300867  0.0000
  Ge     Ge        0.165631718384932    0.718484229741781    0.951419426227470  0.0000
  Ge     Ge        0.347538887319069    0.641908409712656    0.947856434179412  0.0000
  Ge     Ge        0.138133331331974    0.318870639112047    0.949051870627839  0.0000
  Ge     Ge        0.670783665219791    0.732710203355501    0.009070447840144  0.0000
  Ge     Ge        0.825214183106125    0.251736974930803    0.018516730126783  0.0000
  Si     Si        0.045835856043239    0.006681235863104    0.884514649040574  0.0000
  Si     Si        0.168881612820521    0.712749266740965    0.259441558915117  0.0000
  Si     Si        0.848589462019141    0.647988768345400    0.007640242023743  0.0000
  O1     O1        0.077468131619463    0.206976959709619    0.349866013317509  0.0000
  O1     O1        0.409419796930729    0.754105013648434    0.353843596599194  0.0000
  O1     O1        0.876745278010275    0.084233908545033    0.608688402545966  0.0000
  O1     O1        0.626097476489574    0.858974619555786    0.599206908192071  0.0000
  O1     O1        0.919902962996266    0.737513852635578    0.614510319728921  0.0000
  O1     O1        0.578097251153039    0.203964601905191    0.621664120784808  0.0000
  O3     O3        0.128282571509069    0.860632036277073    0.344262809734980  0.0000
  O1     O1        0.370181593723692    0.097446928283263    0.355685420253638  0.0000
  O1     O1        0.027245791332930    0.979243182943590    0.532722332198917  0.0000
  O1     O1        0.522990536445848    0.995021847464332    0.423758289638870  0.0000
  O1     O1        0.973035168419819    0.948643390885808    0.284631639819997  0.0000
  O1     O1        0.471847545600401    0.969618325917431    0.172558206730187  0.0000
  O3     O3        0.976992663182931    0.966632873297450    0.791572842111213  0.0000
  O1     O1        0.471717841849290    0.946845733868523    0.669388953988944  0.0000
  O1     O1        0.577674490524398    0.225825760303206    0.105382348089808  0.0000
  O3     O3        0.907504430214664    0.755236438594426    0.090879633789062  0.0000
  O1     O1        0.363988438988133    0.088196594300853    0.847477326361128  0.0000
  O3     O3        0.115125951050560    0.868350294716651    0.865138511114632  0.0000
  O1     O1        0.414816968967736    0.746914779884242    0.863586764440407  0.0000
  O3     O3        0.076868179620937    0.194570022471676    0.859200734437481  0.0000
  O1     O1        0.624179856269480    0.886653012512394    0.097892071165004  0.0000
  O1     O1        0.871954544178856    0.114678256619442    0.119946443391815  0.0000
  O1     O1        0.516799992887162    0.012954870565167    0.918702969367951  0.0000
  O3     O3        0.018449518978855    0.999310272050472    0.033670150375309  0.0000
  O3     O3        0.152696345262101    0.527123011597312    0.317789606204873  0.0000
  O1     O1        0.339906253347045    0.438992379877875    0.322714825632891  0.0000
  O1     O1        0.842219288767828    0.428617871212327    0.644756894609080  0.0000
  O1     O1        0.659032831132664    0.510451024723886    0.639043260651153  0.0000
  O1     O1        0.226126223281387    0.212313590496191    0.259371679386455  0.0000
  O3     O3        0.258733450976629    0.742714852638372    0.258174702144571  0.0000
  O1     O1        0.730639951304374    0.196369931257898    0.701354404357613  0.0000
  O1     O1        0.768885418832266    0.748573022551061    0.692343396392533  0.0000
  O1     O1        0.104889244587063    0.334710495237174    0.105640326542130  0.0000
  O1     O1        0.377599042703863    0.625332503897774    0.105239589881031  0.0000
  O1     O1        0.857250362373589    0.216282023105223    0.863237352750875  0.0000
  O1     O1        0.639129754270443    0.740333258740260    0.851288929250452  0.0000
  O3     O3        0.879277097798261    0.618940935283902    0.862157120126920  0.0000
  O1     O1        0.617420072438806    0.349245476334105    0.861140204673177  0.0000
  O3     O3        0.137761704324125    0.718193469679671    0.112783836990537  0.0000
  O1     O1        0.355713028782492    0.223006386307791    0.101786580617917  0.0000
  O1     O1        0.651973904412704    0.539413304736614    0.078014596852591  0.0000
  O3     O3        0.837186102443009    0.463193763557374    0.067854048691894  0.0000
  O1     O1        0.336679253482481    0.439294667153171    0.887677697805757  0.0000
  O1     O1        0.147174878708548    0.518144080363547    0.888174363518326  0.0000
  O1     O1        0.729278170261788    0.221399808374795    0.024972266014216  0.0000
  O3     O3        0.768554738792113    0.754977026580940    0.004702667164248  0.0000
  O1     O1        0.224856171510807    0.212108592214043    0.953347419752583  0.0000
  O1     O1        0.261019189637254    0.752290706756229    0.940551460097138  0.0000
