data_c00183.vasp
_audit_creation_method             Generated by GULP
_audit_author_name                 Salvador R. G. Balestra
_symmetry_space_group_name_H-M     'P 1             '
_symmetry_Int_Tables_number        1

loop_
_symmetry_equiv_pos_site_id
_symmetry_equiv_pos_as_xyz
_cell_length_a                       17.6304
_cell_length_b                        7.8330
_cell_length_c                       10.1759
_cell_angle_alpha                   91.3011
_cell_angle_beta                    90.4673
_cell_angle_gamma                   88.8846

loop_
_atom_site_label
_atom_site_type_symbol
_atom_site_fract_x
_atom_site_fract_y
_atom_site_fract_z
_atom_site_charge
  Ge     Ge        0.052090000000021    0.000000000000000    0.372269999999958  0.0000
  Ge     Ge        0.448687328763821    0.947371169282399    0.383872836251703  0.0000
  Ge     Ge        0.943923622591119    0.935797215749587    0.616609334392328  0.0000
  Ge     Ge        0.547155576789600    0.004711455720116    0.122436073483584  0.0000
  Ge     Ge        0.951695578405669    0.941027139230452    0.113478712696563  0.0000
  Ge     Ge        0.444904123066491    0.934788748305177    0.861400288683540  0.0000
  Ge     Ge        0.056883654043991    0.987913850323919    0.861939596140342  0.0000
  Ge     Ge        0.148790414785805    0.310793914579184    0.298931660826883  0.0000
  Ge     Ge        0.353844767256504    0.631853636858042    0.298129530101020  0.0000
  Ge     Ge        0.824088145108659    0.223619344637218    0.732627643598697  0.0000
  Ge     Ge        0.666169744037138    0.688577366778824    0.730640890426758  0.0000
  Ge     Ge        0.849572468527566    0.622339977237966    0.727477473558709  0.0000
  Ge     Ge        0.174092262757006    0.715809264391725    0.294675829405378  0.0000
  Ge     Ge        0.327182959594322    0.225734622927450    0.298660479682673  0.0000
  Ge     Ge        0.648742264945291    0.310847831713760    0.056610811763172  0.0000
  Ge     Ge        0.849054524648589    0.630660591624832    0.049429292205167  0.0000
  Ge     Ge        0.325299337823520    0.218418857844230    0.979744960993379  0.0000
  Ge     Ge        0.172938595117079    0.696161213411746    0.977751226769930  0.0000
  Ge     Ge        0.355075584005510    0.621034436385858    0.979152998997227  0.0000
  Ge     Ge        0.670431889139914    0.715207617420974    0.048258516921887  0.0000
  Ge     Ge        0.826471258232212    0.227027654306383    0.050930797246349  0.0000
  Si     Si        0.555079255445719    0.983578908224858    0.625350185967391  0.0000
  Si     Si        0.645461316055933    0.294259393043563    0.744156699566536  0.0000
  Si     Si        0.148022143100651    0.299495366440305    0.986763799498911  0.0000
  O1     O1        0.084353633661580    0.204774201290643    0.390629912642138  0.0000
  O1     O1        0.415498510131262    0.744757289216305    0.397300021378728  0.0000
  O1     O1        0.865059606845767    0.063206881107840    0.640860770117819  0.0000
  O3     O3        0.617360208429381    0.833312382577664    0.634619683539839  0.0000
  O1     O1        0.917119342544008    0.730708302760477    0.644722501800944  0.0000
  O2     O2        0.586167973577616    0.168226161397748    0.671305746474472  0.0000
  O1     O1        0.125419229860708    0.855355985484418    0.395975856886972  0.0000
  O1     O1        0.375920297869451    0.094466138537356    0.402906144559839  0.0000
  O1     O1        0.972092669309555    0.955924516437768    0.455696036290963  0.0000
  O3     O3        0.528957391189181    0.993190764030882    0.473789475089202  0.0000
  O1     O1        0.029257491526535    0.979342396273754    0.206612712469483  0.0000
  O1     O1        0.473283323650086    0.965532424187466    0.220234983476113  0.0000
  O1     O1        0.024061798306074    0.994789251265490    0.702295940913203  0.0000
  O3     O3        0.478114093365505    0.941394576110404    0.701491656321353  0.0000
  O1     O1        0.583055709977708    0.206786138017583    0.144788264915142  0.0000
  O1     O1        0.914309048983410    0.742807065208415    0.138600634891463  0.0000
  O1     O1        0.365171189607132    0.063014200032539    0.881223783237117  0.0000
  O1     O1        0.126910417468057    0.833654909641655    0.874608913137592  0.0000
  O1     O1        0.420043894381429    0.727969520290010    0.890347478725808  0.0000
  O3     O3        0.087562821190121    0.190984446473421    0.904235414253022  0.0000
  O1     O1        0.619962503099551    0.857186886175246    0.142911055336614  0.0000
  O1     O1        0.880595746006700    0.091601972431111    0.142010354586497  0.0000
  O1     O1        0.517158757914467    0.999453507877584    0.960836861360230  0.0000
  O1     O1        0.978636145237403    0.940071253391582    0.950750454339792  0.0000
  O1     O1        0.161139277453442    0.513727575081726    0.355658913079047  0.0000
  O1     O1        0.339389208900930    0.433352223282067    0.355568888058238  0.0000
  O1     O1        0.843107099383367    0.416875113796491    0.665661507161551  0.0000
  O3     O3        0.649758250674590    0.478431283859668    0.677425803999165  0.0000
  O1     O1        0.231615849255681    0.190290831025814    0.301722909976291  0.0000
  O1     O1        0.269677681757664    0.749425714631150    0.292826051900489  0.0000
  O3     O3        0.726877057281587    0.199188129057565    0.740265362066126  0.0000
  O1     O1        0.761522674449040    0.721829015324694    0.718328234133685  0.0000
  O3     O3        0.119739573160412    0.326038741041894    0.135692086884854  0.0000
  O1     O1        0.386362597088067    0.612508409491508    0.139579438644868  0.0000
  O1     O1        0.857640008987862    0.211088189259215    0.890872541798737  0.0000
  O1     O1        0.636365820024687    0.722114550650952    0.888611085625782  0.0000
  O1     O1        0.876786288453791    0.604487787527882    0.888337999980140  0.0000
  O3     O3        0.620538263642109    0.330560113935930    0.892865346364463  0.0000
  O1     O1        0.140541289999516    0.727883724997311    0.135052561609593  0.0000
  O1     O1        0.358615496347898    0.204134278917404    0.138736056539681  0.0000
  O1     O1        0.660505664015163    0.514333412552685    0.113043656189316  0.0000
  O1     O1        0.836184488783949    0.433755095272091    0.111572272223169  0.0000
  O1     O1        0.345782331531090    0.415722999045140    0.920202620896711  0.0000
  O3     O3        0.158342779834231    0.485122942395844    0.926193952074714  0.0000
  O1     O1        0.731217012881093    0.188966919411190    0.058320590556208  0.0000
  O1     O1        0.765762455960840    0.751301345600741    0.045746046899324  0.0000
  O3     O3        0.227882703728137    0.195366412967090    0.985758206391310  0.0000
  O1     O1        0.268713392000103    0.727650920352599    0.975026638144865  0.0000
