data_c00153.vasp
_audit_creation_method             Generated by GULP
_audit_author_name                 Salvador R. G. Balestra
_symmetry_space_group_name_H-M     'P 1             '
_symmetry_Int_Tables_number        1

loop_
_symmetry_equiv_pos_site_id
_symmetry_equiv_pos_as_xyz
_cell_length_a                       17.7517
_cell_length_b                        7.8142
_cell_length_c                       10.5461
_cell_angle_alpha                   89.9181
_cell_angle_beta                    90.3991
_cell_angle_gamma                   90.3865

loop_
_atom_site_label
_atom_site_type_symbol
_atom_site_fract_x
_atom_site_fract_y
_atom_site_fract_z
_atom_site_charge
  Ge     Ge        0.052090000000021    0.000000000000000    0.372269999999958  0.0000
  Ge     Ge        0.450455067113990    0.970066251938377    0.383166030581907  0.0000
  Ge     Ge        0.949105667505188    0.008921069161257    0.624735857472838  0.0000
  Ge     Ge        0.550690165243312    0.974613337241174    0.124666305840117  0.0000
  Ge     Ge        0.953116475353178    0.998735537001773    0.112855813547114  0.0000
  Ge     Ge        0.442441810411019    0.972956908590246    0.875359015324729  0.0000
  Ge     Ge        0.061327007998240    0.000076612743321    0.868669960485310  0.0000
  Ge     Ge        0.151637513338709    0.313430833381142    0.290121870862925  0.0000
  Ge     Ge        0.352002898138476    0.657649654692535    0.291945091251718  0.0000
  Ge     Ge        0.847487445463809    0.314827847068179    0.730899800224436  0.0000
  Ge     Ge        0.645572068620493    0.660191063569977    0.737797365553917  0.0000
  Ge     Ge        0.825914112211979    0.722868367515990    0.736348108912987  0.0000
  Ge     Ge        0.667314645979424    0.252645792875503    0.740063817022275  0.0000
  Ge     Ge        0.173837869154286    0.726257791148567    0.292088472532593  0.0000
  Ge     Ge        0.329644461068447    0.242829499345917    0.293488010549000  0.0000
  Ge     Ge        0.674673433808487    0.251488808885584    0.049303922996472  0.0000
  Ge     Ge        0.826918597106032    0.722702184576090    0.044892884802435  0.0000
  Ge     Ge        0.328820466129871    0.256070345778326    0.988176298202050  0.0000
  Ge     Ge        0.174871025342534    0.714678289616103    0.986183970091447  0.0000
  Ge     Ge        0.647264820327544    0.656322776990977    0.047136380278071  0.0000
  Ge     Ge        0.854016319593399    0.316504877602147    0.040912353158036  0.0000
  Si     Si        0.548473812683688    0.965723659291896    0.635050685823443  0.0000
  Si     Si        0.352837625698012    0.658405190911963    0.991380821113162  0.0000
  Si     Si        0.151011734056173    0.314247459458361    0.989127396987339  0.0000
  O1     O1        0.087515364374795    0.205019400743433    0.380358147546830  0.0000
  O1     O1        0.416202847193847    0.764637077714217    0.384533386684997  0.0000
  O1     O1        0.912470835500369    0.209615060542805    0.641504590734225  0.0000
  O3     O3        0.579720731590819    0.775080896464666    0.652221204677061  0.0000
  O1     O1        0.877770592987154    0.864888599116346    0.650123500018452  0.0000
  O3     O3        0.614819922857085    0.101106610378632    0.660766532494155  0.0000
  O1     O1        0.124165068322995    0.855068873743223    0.391303902259475  0.0000
  O1     O1        0.377678082678825    0.113363833943165    0.396064777316138  0.0000
  O1     O1        0.978107347864140    0.975839277721547    0.471206351050761  0.0000
  O3     O3        0.521917023071745    0.995107268607859    0.491053471650256  0.0000
  O1     O1        0.022738565004649    0.960995619343369    0.218692407456738  0.0000
  O1     O1        0.485149275427084    0.016786919816567    0.235071518264334  0.0000
  O1     O1        0.029382927213756    0.987954447941957    0.715305935458685  0.0000
  O3     O3        0.475337514268827    0.990122168619672    0.722162915833056  0.0000
  O1     O1        0.627727244199418    0.108999176801319    0.141286327004217  0.0000
  O1     O1        0.877073142655285    0.863248241716889    0.134959297657075  0.0000
  O1     O1        0.370363448768367    0.118226796115487    0.886274895903783  0.0000
  O1     O1        0.132601472942945    0.853283470487240    0.884298952713274  0.0000
  O3     O3        0.409533987371077    0.767481061135137    0.905808291519075  0.0000
  O3     O3        0.093834616389164    0.204824743415550    0.903807596690168  0.0000
  O1     O1        0.583170113668740    0.768263975550436    0.134048643675191  0.0000
  O1     O1        0.920189251069867    0.204657829364890    0.124669646431188  0.0000
  O1     O1        0.514459892652736    0.020861343682545    0.976313103568338  0.0000
  O1     O1        0.986193666580415    0.954696072528360    0.963051440324426  0.0000
  O1     O1        0.162875983990314    0.517013538216790    0.342731873980616  0.0000
  O1     O1        0.340904232736635    0.452930163513517    0.341960166014814  0.0000
  O1     O1        0.836490122027734    0.519125394818894    0.676581101532512  0.0000
  O1     O1        0.652801809375894    0.456045734969556    0.680317718876436  0.0000
  O1     O1        0.234717303281529    0.201098641146189    0.295744602942814  0.0000
  O1     O1        0.268728342324893    0.769064269371651    0.296875141447367  0.0000
  O1     O1        0.761668619025968    0.209484507424286    0.727540477131578  0.0000
  O1     O1        0.731087178091121    0.764706404630577    0.731834736688515  0.0000
  O3     O3        0.120997655778784    0.318397399562909    0.132826927289253  0.0000
  O3     O3        0.383358673105216    0.658909295546039    0.135706278267440  0.0000
  O1     O1        0.880763284646162    0.319170869397204    0.884305951475986  0.0000
  O1     O1        0.615897784989769    0.652325279645862    0.892156065737509  0.0000
  O1     O1        0.857132272379233    0.728493384593196    0.889982660540949  0.0000
  O1     O1        0.641347088300928    0.252150276710197    0.895417655512996  0.0000
  O1     O1        0.142815728794149    0.744208490224519    0.137091092752564  0.0000
  O1     O1        0.361028827094942    0.222786114306877    0.139623325020575  0.0000
  O1     O1        0.660498829306714    0.456301021657292    0.106667268254379  0.0000
  O1     O1        0.842495018201277    0.517066751564240    0.099910120665272  0.0000
  O3     O3        0.347138860593116    0.465422510799554    0.941179356287020  0.0000
  O3     O3        0.157040017417578    0.506271051168029    0.936372562214800  0.0000
  O1     O1        0.768890772430048    0.208583983927486    0.046362976172216  0.0000
  O1     O1        0.732564930613805    0.764265003162602    0.047108866895387  0.0000
  O3     O3        0.232456958496777    0.224492097023813    0.988879316974251  0.0000
  O3     O3        0.271207621819289    0.747180908476975    0.989028919206361  0.0000
