data_c00146.vasp
_audit_creation_method             Generated by GULP
_audit_author_name                 Salvador R. G. Balestra
_symmetry_space_group_name_H-M     'P 1             '
_symmetry_Int_Tables_number        1

loop_
_symmetry_equiv_pos_site_id
_symmetry_equiv_pos_as_xyz
_cell_length_a                       17.5920
_cell_length_b                        7.8394
_cell_length_c                       10.2703
_cell_angle_alpha                   90.8780
_cell_angle_beta                    90.0208
_cell_angle_gamma                   91.4314

loop_
_atom_site_label
_atom_site_type_symbol
_atom_site_fract_x
_atom_site_fract_y
_atom_site_fract_z
_atom_site_charge
  Ge     Ge        0.052090000000021    0.000000000000000    0.372269999999958  0.0000
  Ge     Ge        0.441670642379186    0.059552125193780    0.393574365986595  0.0000
  Ge     Ge        0.945789726576691    0.039733812650319    0.626098683847772  0.0000
  Ge     Ge        0.544974205475446    0.989072882140790    0.644261479143442  0.0000
  Ge     Ge        0.552806752614474    0.993917276475632    0.147469427959250  0.0000
  Ge     Ge        0.046727047512280    0.987940135427934    0.887550377591313  0.0000
  Ge     Ge        0.169148610014371    0.297079782876218    0.271728573672925  0.0000
  Ge     Ge        0.321789030921467    0.771404601979003    0.275585839759943  0.0000
  Ge     Ge        0.850346752803295    0.355425425522562    0.703803147015898  0.0000
  Ge     Ge        0.643006217040891    0.675644227443737    0.714103154767617  0.0000
  Ge     Ge        0.823335935650089    0.758170622789958    0.708723102015328  0.0000
  Ge     Ge        0.670051346803856    0.273360565910293    0.714019504664806  0.0000
  Ge     Ge        0.351503658740563    0.373570428570592    0.280309140612033  0.0000
  Ge     Ge        0.673402299465832    0.278165297323963    0.030326492597157  0.0000
  Ge     Ge        0.828644559160007    0.761100777070193    0.025040287763320  0.0000
  Ge     Ge        0.353079465263452    0.357678076463693    0.963790474868815  0.0000
  Ge     Ge        0.151367829066528    0.680399249728417    0.947010775760844  0.0000
  Ge     Ge        0.331041590711353    0.760481469250865    0.958294601199215  0.0000
  Ge     Ge        0.171407700874376    0.278366203497496    0.958292484385303  0.0000
  Ge     Ge        0.646476085402108    0.680245335184902    0.030718163784622  0.0000
  Ge     Ge        0.855430877485602    0.357257089617236    0.019895065262290  0.0000
  Si     Si        0.944743233733188    0.049622338680935    0.135155546354117  0.0000
  Si     Si        0.450824952537829    0.049636823778708    0.899483234440567  0.0000
  Si     Si        0.145676782283486    0.689722884694181    0.259512626648152  0.0000
  O1     O1        0.121633152181824    0.155199887394097    0.369135972192388  0.0000
  O1     O1        0.362186034306576    0.933791624137481    0.364507230940180  0.0000
  O1     O1        0.912762346749085    0.242513005223803    0.609551228961082  0.0000
  O1     O1        0.577529912589015    0.785868170544125    0.626557128094237  0.0000
  O1     O1        0.870979122071432    0.895639252693244    0.608759055490889  0.0000
  O1     O1        0.619081999778545    0.131607077379826    0.618584468431565  0.0000
  O3     O3        0.081351935309084    0.798228496518699    0.329606662701181  0.0000
  O1     O1        0.417557639287945    0.266815062986521    0.368387001681078  0.0000
  O1     O1        0.021506652271553    0.992547842702868    0.531375096817788  0.0000
  O1     O1        0.467515536496419    0.030853304851638    0.553275499790687  0.0000
  O3     O3        0.972057182099449    0.050932827006884    0.284319847510784  0.0000
  O1     O1        0.519806425589479    0.002808336183666    0.304456341503012  0.0000
  O1     O1        0.973265079662312    0.024345905547783    0.787860127411935  0.0000
  O3     O3        0.521916447394967    0.015482061196477    0.808899712750913  0.0000
  O1     O1        0.628868148679999    0.131638378127156    0.127447773570214  0.0000
  O3     O3        0.873257196889287    0.919858866070338    0.116944359884743  0.0000
  O3     O3        0.416567074088186    0.235474198107584    0.876493622722427  0.0000
  O1     O1        0.083841755323461    0.787500657928193    0.865500447482041  0.0000
  O3     O3        0.385325732582015    0.905230603718043    0.872198165867189  0.0000
  O1     O1        0.120670255279903    0.132979114685229    0.866510487573481  0.0000
  O1     O1        0.580681515277329    0.788802438505743    0.119354960868845  0.0000
  O3     O3        0.922653118795354    0.241543606307283    0.100179134747999  0.0000
  O3     O3        0.476706774795373    0.045720165480630    0.050253154812050  0.0000
  O3     O3        0.015566921187898    0.990936032138129    0.048125622118555  0.0000
  O3     O3        0.154525014996311    0.506283561925576    0.324850698813004  0.0000
  O1     O1        0.341592128945536    0.576952212597703    0.341227212875000  0.0000
  O1     O1        0.835691129020026    0.554216429248970    0.646376913503665  0.0000
  O1     O1        0.655780335546510    0.475171192914605    0.653594982824630  0.0000
  O1     O1        0.265026932484864    0.265992593505181    0.280899404918673  0.0000
  O3     O3        0.224535499397851    0.798776465463926    0.269911431475968  0.0000
  O1     O1        0.765722864654523    0.238614310393134    0.709810136406533  0.0000
  O1     O1        0.727613391772204    0.792880690077714    0.713439951068149  0.0000
  O1     O1        0.137740799452017    0.263572703559507    0.115494022348478  0.0000
  O1     O1        0.356494451376395    0.774879871279477    0.119520921151529  0.0000
  O1     O1        0.883637263219465    0.376988987131778    0.861082661724919  0.0000
  O1     O1        0.614399129274772    0.658949542376301    0.873379311667825  0.0000
  O1     O1        0.858069925399638    0.772047445994933    0.865931028492684  0.0000
  O1     O1        0.640042630900223    0.262876107754546    0.873450773945130  0.0000
  O3     O3        0.126428053479910    0.653271049548179    0.109216675681646  0.0000
  O1     O1        0.382210389221604    0.387564095581628    0.122065064192816  0.0000
  O1     O1        0.658150950166985    0.480529548088400    0.091520588808608  0.0000
  O1     O1        0.847442514451247    0.560635375347480    0.082803144509586  0.0000
  O1     O1        0.345393084683609    0.556041050771486    0.898902449339980  0.0000
  O1     O1        0.160638287679330    0.476678210932956    0.890272868359909  0.0000
  O1     O1        0.769706301539900    0.248702863743804    0.027308135433739  0.0000
  O1     O1        0.732468619992145    0.790479109424750    0.031469642522006  0.0000
  O1     O1        0.267437391377368    0.246443305416482    0.963725919886357  0.0000
  O1     O1        0.235815465665140    0.796228602948429    0.941337790175642  0.0000
