data_c00136.vasp
_audit_creation_method             Generated by GULP
_audit_author_name                 Salvador R. G. Balestra
_symmetry_space_group_name_H-M     'P 1             '
_symmetry_Int_Tables_number        1

loop_
_symmetry_equiv_pos_site_id
_symmetry_equiv_pos_as_xyz
_cell_length_a                       17.5036
_cell_length_b                        7.8541
_cell_length_c                       10.2445
_cell_angle_alpha                   88.3979
_cell_angle_beta                    88.2688
_cell_angle_gamma                   92.5615

loop_
_atom_site_label
_atom_site_type_symbol
_atom_site_fract_x
_atom_site_fract_y
_atom_site_fract_z
_atom_site_charge
  Ge     Ge        0.052090000000021    0.000000000000000    0.372269999999958  0.0000
  Ge     Ge        0.448673127571446    0.044500779961330    0.384645087114668  0.0000
  Ge     Ge        0.970396005863117    0.095645703190331    0.638771488600575  0.0000
  Ge     Ge        0.557802064894702    0.021476214598508    0.632850438014235  0.0000
  Ge     Ge        0.554333971740480    0.993296555730460    0.129236170712466  0.0000
  Ge     Ge        0.939804829164480    0.068590097081645    0.144661971658139  0.0000
  Ge     Ge        0.177208716309192    0.299170540506818    0.260854841735436  0.0000
  Ge     Ge        0.330479061291576    0.756957598172042    0.279368930953090  0.0000
  Ge     Ge        0.864999116147489    0.397126979943331    0.705695647891823  0.0000
  Ge     Ge        0.659345978068008    0.708147063462890    0.693162273730882  0.0000
  Ge     Ge        0.840384336794812    0.799548955793892    0.705647097876865  0.0000
  Ge     Ge        0.683231327528451    0.308817344396487    0.699432934108838  0.0000
  Ge     Ge        0.142799916033585    0.684750296948057    0.276673752216992  0.0000
  Ge     Ge        0.354461065769734    0.354011963805545    0.267699831602226  0.0000
  Ge     Ge        0.676598364268095    0.288032652643788    0.017561522776629  0.0000
  Ge     Ge        0.825022224799796    0.786800065333103    0.022473567405205  0.0000
  Ge     Ge        0.355748033958054    0.383728980390984    0.937508203527901  0.0000
  Ge     Ge        0.151653350420014    0.720359897932574    0.966334372749125  0.0000
  Ge     Ge        0.341024186790534    0.782892947668897    0.965975002283253  0.0000
  Ge     Ge        0.643499277658539    0.683228695270548    0.010762293438810  0.0000
  Ge     Ge        0.858730702975800    0.389269410951913    0.023645532230475  0.0000
  Si     Si        0.456327209404625    0.082551868176386    0.886881941635107  0.0000
  Si     Si        0.058865318157503    0.035446798006995    0.906935584532118  0.0000
  Si     Si        0.180803328870137    0.345190860560217    0.946538263831108  0.0000
  O1     O1        0.118514240892864    0.123731337272909    0.278006453955691  0.0000
  O1     O1        0.370889622673251    0.905429148796304    0.378926971669771  0.0000
  O1     O1        0.932856368841627    0.291979461027326    0.619558283365457  0.0000
  O1     O1        0.594132904804565    0.824264769282626    0.611726890566991  0.0000
  O1     O1        0.898895347653384    0.942027319165757    0.616776896027965  0.0000
  O1     O1        0.632020697201065    0.170360603428374    0.605601060863505  0.0000
  O1     O1        0.080950909107577    0.795715625032292    0.373493655139234  0.0000
  O1     O1        0.425879027565154    0.246837421981835    0.337274743328972  0.0000
  O1     O1        0.044398146978155    0.069333670126262    0.529862013620027  0.0000
  O1     O1        0.480191723630101    0.052479209895433    0.541630528437614  0.0000
  O1     O1        0.965725339509414    0.032382258045509    0.302598357562659  0.0000
  O1     O1        0.524051043468714    0.981082929561564    0.289527191081136  0.0000
  O3     O3        0.999814488544406    0.082431163471046    0.798695747105360  0.0000
  O3     O3        0.527571420490468    0.039501423153650    0.795802281535459  0.0000
  O1     O1        0.634760972046822    0.125695591892930    0.112144758309526  0.0000
  O1     O1        0.860040706981440    0.942095141461205    0.119982332645160  0.0000
  O3     O3        0.423840981679106    0.268355175357601    0.857050124674370  0.0000
  O3     O3        0.100317487879896    0.862706743655059    0.874268815617128  0.0000
  O3     O3        0.385352128874580    0.946680080354223    0.873246339891136  0.0000
  O2     O2        0.123176323346869    0.189064699798476    0.917526629108481  0.0000
  O1     O1        0.572543827259731    0.788334513414858    0.087454524407905  0.0000
  O1     O1        0.921850469882380    0.279025226281957    0.115359782130995  0.0000
  O3     O3        0.483340702190098    0.076369389345303    0.036086293024042  0.0000
  O3     O3        0.015669945049118    0.008678017891432    0.046166685001362  0.0000
  O1     O1        0.142657837033500    0.476692724033171    0.334074412828043  0.0000
  O1     O1        0.350409414582230    0.554231944131232    0.329601026924813  0.0000
  O1     O1        0.854033971429065    0.599111993266961    0.646090369497802  0.0000
  O1     O1        0.674010625109755    0.511537331000774    0.632489371041717  0.0000
  O1     O1        0.266851676713892    0.251688895939326    0.307139242008334  0.0000
  O1     O1        0.233649319101546    0.777181682086697    0.280700254403567  0.0000
  O1     O1        0.779853579608555    0.277559612225897    0.701120682718756  0.0000
  O1     O1        0.744005876562263    0.830359740328979    0.695140675160552  0.0000
  O3     O3        0.190381586161003    0.381537849900982    0.100621981688820  0.0000
  O1     O1        0.370503032800639    0.792614267221084    0.124512145578251  0.0000
  O1     O1        0.892101760263532    0.414380609740614    0.865056017681361  0.0000
  O1     O1        0.624065864501298    0.663830817300019    0.849251274695203  0.0000
  O1     O1        0.864407490033622    0.811877991906985    0.866860254232566  0.0000
  O1     O1        0.648773582836551    0.282407027017964    0.858269492935911  0.0000
  O1     O1        0.110437447119922    0.703635431436332    0.120052269422435  0.0000
  O1     O1        0.369053982337882    0.364550522144289    0.101672134850326  0.0000
  O1     O1        0.653340562441549    0.483538066244745    0.077792455566133  0.0000
  O1     O1        0.845125878523119    0.587062123706664    0.084060686986651  0.0000
  O1     O1        0.364594856284394    0.595553912379862    0.894946008573145  0.0000
  O3     O3        0.151170886108585    0.523987732915978    0.890464933252918  0.0000
  O1     O1        0.773732550079337    0.271488045983749    0.021723296159381  0.0000
  O1     O1        0.728221882094681    0.802699886162451    0.017099150422687  0.0000
  O3     O3        0.265066228364836    0.308937060907609    0.892303390256344  0.0000
  O1     O1        0.244004833822825    0.800749202321150    0.973156279875622  0.0000
