data_c00152.vasp
_audit_creation_method             Generated by GULP
_audit_author_name                 Salvador R. G. Balestra
_symmetry_space_group_name_H-M     'P 1             '
_symmetry_Int_Tables_number        1

loop_
_symmetry_equiv_pos_site_id
_symmetry_equiv_pos_as_xyz
_cell_length_a                       17.5639
_cell_length_b                        7.8508
_cell_length_c                       10.2761
_cell_angle_alpha                   90.2928
_cell_angle_beta                    90.4921
_cell_angle_gamma                   91.5605

loop_
_atom_site_label
_atom_site_type_symbol
_atom_site_fract_x
_atom_site_fract_y
_atom_site_fract_z
_atom_site_charge
  Ge     Ge        0.052090000000021    0.000000000000000    0.372269999999958  0.0000
  Ge     Ge        0.449174742158247    0.051395855791281    0.374373909708527  0.0000
  Ge     Ge        0.943984333152723    0.049929979711150    0.619387995627045  0.0000
  Ge     Ge        0.557545376181078    0.999726835699746    0.129344673074432  0.0000
  Ge     Ge        0.943662227934584    0.059655072092721    0.125309287874412  0.0000
  Ge     Ge        0.445749944546450    0.047373369249125    0.880873406275327  0.0000
  Ge     Ge        0.047401125650305    0.991123646942826    0.874952844887998  0.0000
  Ge     Ge        0.174070381632296    0.285582795988369    0.261145075742876  0.0000
  Ge     Ge        0.325030288109362    0.766247369503942    0.257701281703973  0.0000
  Ge     Ge        0.843779660051705    0.361521127592211    0.690129586426486  0.0000
  Ge     Ge        0.640489447991412    0.685995399577460    0.697760094095015  0.0000
  Ge     Ge        0.821256599438138    0.763675104869939    0.690964712901575  0.0000
  Ge     Ge        0.661891680929272    0.281198645176554    0.702413140680078  0.0000
  Ge     Ge        0.143907072910099    0.685535742121259    0.255169947987906  0.0000
  Ge     Ge        0.357340149308827    0.365663991371272    0.260919332371032  0.0000
  Ge     Ge        0.670943110438791    0.296061966359142    0.016079885853071  0.0000
  Ge     Ge        0.823737222747690    0.773038096761954    0.006906686442540  0.0000
  Ge     Ge        0.352416420109146    0.365940221285870    0.947884909477479  0.0000
  Ge     Ge        0.148684459597168    0.680803848989159    0.936995390486915  0.0000
  Ge     Ge        0.170660853780893    0.281958246256166    0.947208328327424  0.0000
  Ge     Ge        0.853381423296274    0.374277736682366    0.006568423973827  0.0000
  Si     Si        0.544405998933556    0.992565319404994    0.628993421015603  0.0000
  Si     Si        0.325855981602430    0.758879627744530    0.947666488020095  0.0000
  Si     Si        0.645792288785185    0.690487087310045    0.006212221003617  0.0000
  O1     O1        0.129333000316319    0.134409483363632    0.354627334836322  0.0000
  O1     O1        0.370478771292937    0.923846143240581    0.344120140318063  0.0000
  O1     O1        0.906234175028831    0.247567726755836    0.599101730467602  0.0000
  O3     O3        0.575864577745413    0.803514646853197    0.610268122225305  0.0000
  O1     O1        0.872014371501991    0.899872679611648    0.593736583531549  0.0000
  O3     O3        0.611414955050209    0.134255359640017    0.607712599048357  0.0000
  O1     O1        0.075852187425953    0.794613426712459    0.336928345659476  0.0000
  O1     O1        0.423934093461056    0.258183366712910    0.349252088279484  0.0000
  O1     O1        0.023471547842606    0.012821737307866    0.532249019502629  0.0000
  O3     O3        0.473131785989476    0.027110279601357    0.537803374047057  0.0000
  O1     O1        0.972973495568738    0.057673684104252    0.284852217187824  0.0000
  O1     O1        0.526751765653611    0.992352762864242    0.287303572660838  0.0000
  O1     O1        0.970562445587441    0.034197268177540    0.781838766270398  0.0000
  O3     O3        0.519703835132804    0.005939584826847    0.779835415951371  0.0000
  O1     O1        0.628311876174509    0.153786984265504    0.118997830511705  0.0000
  O1     O1        0.863731696655873    0.930900716997218    0.100966538132107  0.0000
  O1     O1        0.410394403578987    0.246429259356313    0.852885933690259  0.0000
  O1     O1        0.085729724233000    0.794274369743948    0.847406656704641  0.0000
  O3     O3        0.372699233718399    0.894822433899638    0.863269855188662  0.0000
  O1     O1        0.120661960043170    0.138136404364289    0.853835960891464  0.0000
  O3     O3        0.586820827970626    0.797538982723887    0.088330891843084  0.0000
  O1     O1        0.921747779229139    0.266134845109557    0.088128264422793  0.0000
  O1     O1        0.479631067451923    0.050218388969695    0.037911937994220  0.0000
  O1     O1        0.018165292021492    0.990001620672302    0.035081590609559  0.0000
  O1     O1        0.155836297572341    0.486797691346339    0.319369723597237  0.0000
  O1     O1        0.345230792036083    0.568502760394324    0.318920179794230  0.0000
  O1     O1        0.831011919220904    0.560225857874018    0.629512104478533  0.0000
  O1     O1        0.646503647591933    0.482511541063047    0.640712710543796  0.0000
  O1     O1        0.270404588029074    0.257991364618352    0.263043992466948  0.0000
  O1     O1        0.229330702580099    0.798560235272513    0.264085045042965  0.0000
  O1     O1        0.757956363682975    0.248767892391974    0.696709073764237  0.0000
  O1     O1        0.725411614968992    0.798798535916234    0.690117626950073  0.0000
  O1     O1        0.138231160194457    0.268043220845664    0.105018735264669  0.0000
  O3     O3        0.354878534900797    0.768477583648429    0.096859970266439  0.0000
  O1     O1        0.878452652058271    0.388629066559933    0.845936948328135  0.0000
  O3     O3        0.614827695342192    0.663837741359857    0.859612276601579  0.0000
  O1     O1        0.854884828932653    0.783337249237422    0.848852076073635  0.0000
  O1     O1        0.633784885721766    0.266615377313181    0.862153839738369  0.0000
  O1     O1        0.118056939207192    0.661970338771204    0.094968459788288  0.0000
  O1     O1        0.388441462997744    0.377135154491232    0.103285725424511  0.0000
  O3     O3        0.657390963719574    0.505133192830877    0.067584384284762  0.0000
  O1     O1        0.845955981051714    0.576728774888379    0.068118419141960  0.0000
  O3     O3        0.339211832064490    0.569251170186755    0.890571952519669  0.0000
  O1     O1        0.156525903581068    0.479581301293456    0.878640626277803  0.0000
  O1     O1        0.766949584935510    0.265991687898801    0.014777040825173  0.0000
  O3     O3        0.725914631294507    0.795201485840160    0.002780648204298  0.0000
  O1     O1        0.266631089226941    0.254670306549054    0.953921616495878  0.0000
  O3     O3        0.236104658171423    0.791765352093682    0.942365716729857  0.0000
