data_c00125.vasp
_audit_creation_method             Generated by GULP
_audit_author_name                 Salvador R. G. Balestra
_symmetry_space_group_name_H-M     'P 1             '
_symmetry_Int_Tables_number        1

loop_
_symmetry_equiv_pos_site_id
_symmetry_equiv_pos_as_xyz
_cell_length_a                       17.7992
_cell_length_b                        7.9051
_cell_length_c                       10.3236
_cell_angle_alpha                   88.7014
_cell_angle_beta                    91.0845
_cell_angle_gamma                   89.6646

loop_
_atom_site_label
_atom_site_type_symbol
_atom_site_fract_x
_atom_site_fract_y
_atom_site_fract_z
_atom_site_charge
  Ge     Ge        0.052090000000021    0.000000000000000    0.372269999999958  0.0000
  Ge     Ge        0.442341191150454    0.025247756154380    0.322742898860196  0.0000
  Ge     Ge        0.943749287951563    0.027433121693430    0.618260568951579  0.0000
  Ge     Ge        0.547007124728010    0.047377492964754    0.578295103825056  0.0000
  Ge     Ge        0.544925498727058    0.026375362582414    0.068690665234785  0.0000
  Ge     Ge        0.942693854097243    0.003874689962297    0.118973601546610  0.0000
  Ge     Ge        0.435515849385380    0.037301060897699    0.818835490572430  0.0000
  Ge     Ge        0.167042740652242    0.288081227296960    0.253889744058060  0.0000
  Ge     Ge        0.327361546984911    0.735864757115142    0.254050420647064  0.0000
  Ge     Ge        0.825902164285939    0.315854143013683    0.682409382194233  0.0000
  Ge     Ge        0.839296324708012    0.716702395590995    0.690922381281711  0.0000
  Ge     Ge        0.644061753609208    0.360124528967845    0.684669589394155  0.0000
  Ge     Ge        0.146076096515930    0.688019877265257    0.262995184914658  0.0000
  Ge     Ge        0.643992611948236    0.343160646868897    0.997164503209859  0.0000
  Ge     Ge        0.846310258462220    0.696020508154098    0.007796135844840  0.0000
  Ge     Ge        0.338796248774943    0.345848154197363    0.938656364746783  0.0000
  Ge     Ge        0.139746138818004    0.705216123622883    0.947978866599253  0.0000
  Ge     Ge        0.320988485315091    0.752568487730707    0.941450748416641  0.0000
  Ge     Ge        0.158143599006615    0.302165519269659    0.939344097245072  0.0000
  Ge     Ge        0.666696513689366    0.743946795126320    0.007809235225919  0.0000
  Ge     Ge        0.825050279050687    0.292021868956851    0.996476957904613  0.0000
  Si     Si        0.043795753674509    0.020758872795266    0.873074317200106  0.0000
  Si     Si        0.661996122289953    0.756004306073684    0.698255942789106  0.0000
  Si     Si        0.343666312819169    0.338215083374182    0.246649038915490  0.0000
  O1     O1        0.125926922797271    0.133554832652176    0.344105294416766  0.0000
  O1     O1        0.379271563571039    0.864800166942492    0.351500725932433  0.0000
  O1     O1        0.879688157376553    0.187525685577535    0.589590851205950  0.0000
  O3     O3        0.614302986017008    0.897202183220687    0.620057701188874  0.0000
  O1     O1        0.896163504662991    0.841465071915991    0.598720097064321  0.0000
  O1     O1        0.583728102701186    0.246730052439022    0.589755756010524  0.0000
  O1     O1        0.084835073791262    0.797533692228058    0.356075819672683  0.0000
  O3     O3        0.399353147267710    0.222318385506941    0.334278273598672  0.0000
  O1     O1        0.021890490328153    0.034773845832996    0.526547453323634  0.0000
  O1     O1        0.520554244249999    0.015461260165968    0.419563776913177  0.0000
  O1     O1        0.974649408756465    0.035368692880061    0.273828675171786  0.0000
  O1     O1        0.470153991132652    0.999337896275323    0.165681057462571  0.0000
  O3     O3        0.972274945675297    0.043190409024649    0.779852279557900  0.0000
  O1     O1        0.464818450646120    0.029337611559995    0.661704261886292  0.0000
  O1     O1        0.583803829119749    0.222989928574417    0.086953947774902  0.0000
  O1     O1        0.911538327386525    0.800757702402467    0.098894060351595  0.0000
  O1     O1        0.402539404915625    0.236901665576451    0.852375382117963  0.0000
  O3     O3        0.079530057727958    0.834853705642260    0.856793876929733  0.0000
  O1     O1        0.364827065925402    0.893723462295135    0.841453117803555  0.0000
  O3     O3        0.106288168769555    0.163998151498237    0.846974503018869  0.0000
  O1     O1        0.615146097724937    0.877892957193983    0.096858313861655  0.0000
  O1     O1        0.869452327844059    0.141117850836852    0.090348232245259  0.0000
  O1     O1        0.513993856722600    0.994888790577159    0.912166832126072  0.0000
  O3     O3        0.018425892721978    0.043797626738776    0.020768227568925  0.0000
  O1     O1        0.152361337722445    0.483040296296392    0.319718962833581  0.0000
  O3     O3        0.338258673288708    0.524602507441985    0.303225261630414  0.0000
  O1     O1        0.836545642407480    0.520548826617205    0.626564896455390  0.0000
  O3     O3        0.650171225731700    0.571647937449781    0.636514704398924  0.0000
  O3     O3        0.262371282484251    0.249327873941283    0.244242851746347  0.0000
  O1     O1        0.233382680195616    0.780744878830023    0.263689047555425  0.0000
  O1     O1        0.731957462432123    0.270015249030833    0.676371114459985  0.0000
  O3     O3        0.749568043249605    0.804136114582035    0.694767580879901  0.0000
  O1     O1        0.131687442411541    0.293788851838324    0.098351702401469  0.0000
  O1     O1        0.356390099747692    0.761984238803084    0.097070839578959  0.0000
  O1     O1        0.857152755364421    0.297265201367457    0.840886166438241  0.0000
  O3     O3        0.636854018616733    0.745075229229216    0.846545111779314  0.0000
  O1     O1        0.872467648246348    0.704720299589675    0.848219637298165  0.0000
  O1     O1        0.610634061184469    0.347390767005418    0.839127836536001  0.0000
  O1     O1        0.111286131716559    0.691910161064049    0.105996383795754  0.0000
  O3     O3        0.370963905666144    0.348711758232848    0.098677810214667  0.0000
  O1     O1        0.652942631995955    0.538632307245635    0.061720453803258  0.0000
  O1     O1        0.839495698551245    0.489704031259442    0.059788062534710  0.0000
  O1     O1        0.331880382792113    0.551292992435411    0.883840359278417  0.0000
  O1     O1        0.143263625177150    0.507596626705464    0.883747570004101  0.0000
  O1     O1        0.731046675836854    0.248179707481669    0.991806581193286  0.0000
  O1     O1        0.759753603737005    0.792830446389044    0.019401167382840  0.0000
  O1     O1        0.251794185250734    0.253216361688709    0.928480187592627  0.0000
  O1     O1        0.226835953008951    0.796829456739459    0.948011327650773  0.0000
