data_c00180.vasp
_audit_creation_method             Generated by GULP
_audit_author_name                 Salvador R. G. Balestra
_symmetry_space_group_name_H-M     'P 1             '
_symmetry_Int_Tables_number        1

loop_
_symmetry_equiv_pos_site_id
_symmetry_equiv_pos_as_xyz
_cell_length_a                       17.5488
_cell_length_b                        7.8542
_cell_length_c                       10.1797
_cell_angle_alpha                   90.1752
_cell_angle_beta                    90.4891
_cell_angle_gamma                   87.8306

loop_
_atom_site_label
_atom_site_type_symbol
_atom_site_fract_x
_atom_site_fract_y
_atom_site_fract_z
_atom_site_charge
  Ge     Ge        0.052090000000021    0.000000000000000    0.372269999999958  0.0000
  Ge     Ge        0.437224476518751    0.958354111941213    0.375143637714412  0.0000
  Ge     Ge        0.940775457172315    0.946723497194436    0.614221517188696  0.0000
  Ge     Ge        0.548059493192146    0.012142103917748    0.129503220228820  0.0000
  Ge     Ge        0.939643292256465    0.946812230451667    0.126816690823920  0.0000
  Ge     Ge        0.444966909632434    0.944656200231913    0.870915740273550  0.0000
  Ge     Ge        0.041435198828771    0.010460717119646    0.872629304472414  0.0000
  Ge     Ge        0.140922022692632    0.320092903759595    0.256075879150307  0.0000
  Ge     Ge        0.347975446746604    0.637569108312902    0.258236564949943  0.0000
  Ge     Ge        0.818255533520595    0.236759748104099    0.688785017355222  0.0000
  Ge     Ge        0.658970031363881    0.719768235942382    0.692604186890759  0.0000
  Ge     Ge        0.841299064631029    0.638323725081297    0.684804065536836  0.0000
  Ge     Ge        0.635874348031339    0.317849367810717    0.691489553302839  0.0000
  Ge     Ge        0.636716199023732    0.324937526785159    0.009211091978628  0.0000
  Ge     Ge        0.849246844964516    0.634713349705596    0.003704836860306  0.0000
  Ge     Ge        0.320493952125747    0.234567548059686    0.947121910779027  0.0000
  Ge     Ge        0.167162342940263    0.720445752946416    0.945615492426797  0.0000
  Ge     Ge        0.347845929288912    0.637521075634725    0.941632567452412  0.0000
  Ge     Ge        0.139866381192645    0.318496733855093    0.939311663228669  0.0000
  Ge     Ge        0.667409145406804    0.724261081406188    0.011436862889612  0.0000
  Ge     Ge        0.818744041115526    0.234298528772313    0.007202559915659  0.0000
  Si     Si        0.542013088738757    0.009165473834747    0.620518222405731  0.0000
  Si     Si        0.166505290826310    0.710165393902765    0.256185676561719  0.0000
  Si     Si        0.322347312553682    0.246372564627321    0.257615294993728  0.0000
  O1     O1        0.081987785022301    0.203535056560980    0.350193778510411  0.0000
  O1     O1        0.406713772368185    0.754902150664556    0.354349925628959  0.0000
  O1     O1        0.868592424886903    0.098360916796391    0.589394645708284  0.0000
  O3     O3        0.608246448052745    0.865138186542284    0.594890046583504  0.0000
  O1     O1        0.903568864646155    0.749900320865737    0.591840976024982  0.0000
  O3     O3        0.573703224396812    0.196078849375831    0.599992846594038  0.0000
  O3     O3        0.127449172642035    0.858492254513036    0.342964874905360  0.0000
  O3     O3        0.361356442911039    0.099286659128730    0.346084868886525  0.0000
  O1     O1        0.023142830024842    0.980878710524930    0.532853907615306  0.0000
  O3     O3        0.466029277179666    0.978336879855528    0.538288963835712  0.0000
  O1     O1        0.970260059901159    0.956108315632023    0.287571848716377  0.0000
  O1     O1        0.516885291878761    0.001034072865528    0.288465143929422  0.0000
  O1     O1        0.964936429218293    0.963546904716401    0.779541776549981  0.0000
  O3     O3        0.520799451674727    0.990606516236231    0.774696133310136  0.0000
  O1     O1        0.571442873833197    0.218501668608002    0.097636243750894  0.0000
  O1     O1        0.916404903656934    0.740935213503392    0.090570527911467  0.0000
  O1     O1        0.370878523332488    0.092960360530261    0.852931089049748  0.0000
  O1     O1        0.115657349030790    0.862192968724190    0.852867901243515  0.0000
  O1     O1        0.410308579241386    0.745022879139869    0.846792141037588  0.0000
  O1     O1        0.076381410771093    0.209470165892864    0.845675622035238  0.0000
  O1     O1        0.626913923805278    0.878565109841627    0.108893166280403  0.0000
  O1     O1        0.861175605339377    0.081348392356542    0.104416621344167  0.0000
  O1     O1        0.474544151163935    0.949389305570421    0.032241297356927  0.0000
  O1     O1        0.014627986773026    0.008962855676353    0.035257566370019  0.0000
  O3     O3        0.146435175283050    0.526879595204924    0.315012475138098  0.0000
  O3     O3        0.342716782583588    0.430693295532886    0.315447405576617  0.0000
  O1     O1        0.828918412741675    0.438358562320149    0.625445600865151  0.0000
  O1     O1        0.644376976202479    0.518282631133980    0.629773364584765  0.0000
  O3     O3        0.231859015356726    0.226636170421143    0.254935445563129  0.0000
  O3     O3        0.256937512177813    0.730452222569762    0.255188789756446  0.0000
  O1     O1        0.722093674824266    0.205345564333694    0.692077967717685  0.0000
  O1     O1        0.755050738593280    0.752146087718028    0.688407287558519  0.0000
  O1     O1        0.107158023614819    0.326825265875626    0.098824821383984  0.0000
  O1     O1        0.381504020757812    0.632374079405365    0.101516002309766  0.0000
  O1     O1        0.851717481434422    0.220845641048959    0.848341590144319  0.0000
  O1     O1        0.630647919640745    0.733469084846110    0.853801399193051  0.0000
  O1     O1        0.876332682738291    0.616562463490552    0.842427223244244  0.0000
  O1     O1        0.604587633378018    0.343951671375793    0.849565260708187  0.0000
  O3     O3        0.135039431972439    0.724355893187474    0.107275387196630  0.0000
  O3     O3        0.353396449989162    0.228993399407808    0.109260089467463  0.0000
  O1     O1        0.650015067765316    0.524144782165454    0.072052107683243  0.0000
  O1     O1        0.837906452389611    0.435004482777960    0.066036080537792  0.0000
  O1     O1        0.334589189057373    0.436594870730943    0.886678125709382  0.0000
  O1     O1        0.152863329956799    0.518537892259619    0.883329240746369  0.0000
  O1     O1        0.722204624058856    0.210169402976027    0.006442242815203  0.0000
  O1     O1        0.763716732411255    0.749591413154998    0.006614530733233  0.0000
  O1     O1        0.225229795012230    0.200856198653473    0.941882324440106  0.0000
  O1     O1        0.262379330077194    0.754752286200831    0.942208713807796  0.0000
