data_c00105.vasp
_audit_creation_method             Generated by GULP
_audit_author_name                 Salvador R. G. Balestra
_symmetry_space_group_name_H-M     'P 1             '
_symmetry_Int_Tables_number        1

loop_
_symmetry_equiv_pos_site_id
_symmetry_equiv_pos_as_xyz
_cell_length_a                       17.6156
_cell_length_b                        7.8618
_cell_length_c                       10.3131
_cell_angle_alpha                   90.7503
_cell_angle_beta                    90.9238
_cell_angle_gamma                   91.4612

loop_
_atom_site_label
_atom_site_type_symbol
_atom_site_fract_x
_atom_site_fract_y
_atom_site_fract_z
_atom_site_charge
  Ge     Ge        0.052090000000021    0.000000000000000    0.372269999999958  0.0000
  Ge     Ge        0.448089930007739    0.053661801032508    0.360727680736276  0.0000
  Ge     Ge        0.946827959325039    0.047419865426704    0.622184641029825  0.0000
  Ge     Ge        0.549556483661584    0.002923637268540    0.620839225985674  0.0000
  Ge     Ge        0.552371744243431    0.000864179091440    0.114391077374796  0.0000
  Ge     Ge        0.941237814914797    0.059535823465110    0.124427608637205  0.0000
  Ge     Ge        0.441157541262280    0.046855937005950    0.868650388340545  0.0000
  Ge     Ge        0.171985576234797    0.284860095954544    0.259349188270558  0.0000
  Ge     Ge        0.324225472311333    0.764977932486247    0.250304863669479  0.0000
  Ge     Ge        0.846812795712743    0.361698706384918    0.692298390040470  0.0000
  Ge     Ge        0.644440159303282    0.685214435933965    0.688932026026560  0.0000
  Ge     Ge        0.825178122995585    0.761568697283377    0.690393926183254  0.0000
  Ge     Ge        0.143154181592924    0.684437797100494    0.256169891331067  0.0000
  Ge     Ge        0.352764018367217    0.364646109621641    0.246876002743786  0.0000
  Ge     Ge        0.668745561607618    0.298249334807132    0.001253409034263  0.0000
  Ge     Ge        0.822122053900614    0.771412723623651    0.005527307069472  0.0000
  Ge     Ge        0.340620424457875    0.358225985057876    0.930811651945782  0.0000
  Ge     Ge        0.137531989906582    0.680888580871556    0.941033399478422  0.0000
  Ge     Ge        0.318570429915447    0.758386868849742    0.935550761495934  0.0000
  Ge     Ge        0.159811414685913    0.279389618328793    0.945001816408367  0.0000
  Ge     Ge        0.850026475677503    0.372014151160111    0.008737743133417  0.0000
  Si     Si        0.041044585031502    0.988364130896884    0.878672839848745  0.0000
  Si     Si        0.668851480624180    0.289241341302697    0.694111684455326  0.0000
  Si     Si        0.643994469265613    0.694763682264520    0.994984062073984  0.0000
  O1     O1        0.128248761791190    0.135859471378744    0.353313657753051  0.0000
  O1     O1        0.371227007580104    0.917671326806642    0.341341820468416  0.0000
  O1     O1        0.908549961713118    0.244264172369928    0.604275103763078  0.0000
  O1     O1        0.582477090745272    0.800233247336605    0.598029765065600  0.0000
  O1     O1        0.875134721578136    0.898556746415085    0.594995460053079  0.0000
  O3     O3        0.623403522545682    0.152296555578653    0.605109310461016  0.0000
  O1     O1        0.077760564377050    0.794758800902167    0.342158495703592  0.0000
  O1     O1        0.422542075137054    0.257603432855907    0.325967702345626  0.0000
  O1     O1        0.024462136479927    0.016659661470457    0.531576271417498  0.0000
  O1     O1        0.475172724430618    0.046986284681942    0.522102004231108  0.0000
  O1     O1        0.973648965023607    0.052380550879301    0.281487634049507  0.0000
  O1     O1        0.525619010499821    0.994824693983368    0.273865129766910  0.0000
  O3     O3        0.970873158028315    0.025867318979827    0.786109985862961  0.0000
  O1     O1        0.518557341204666    0.011204238344268    0.778418237745513  0.0000
  O1     O1        0.620377632516044    0.158792304133995    0.095747533278435  0.0000
  O1     O1        0.862616507253224    0.928198387181529    0.101242876091684  0.0000
  O1     O1        0.402574208852921    0.242802000676014    0.842018173276517  0.0000
  O3     O3        0.073064622709813    0.800352725128755    0.854755782035960  0.0000
  O1     O1        0.369002166831991    0.897364336936847    0.842924603684138  0.0000
  O3     O3        0.107878344003486    0.128756493366444    0.856530479098238  0.0000
  O3     O3        0.584638341643519    0.800004297729770    0.077110963553572  0.0000
  O1     O1        0.917005522869977    0.265395253412522    0.094861597878515  0.0000
  O1     O1        0.471355562450404    0.043480015901224    0.028811604381780  0.0000
  O3     O3        0.015097446264921    0.995870390144249    0.028123168462193  0.0000
  O1     O1        0.157123850051571    0.486932425273128    0.319549641596073  0.0000
  O1     O1        0.342041488708400    0.565522817271881    0.309905895338844  0.0000
  O1     O1        0.839331142862188    0.559179937798709    0.629893786267099  0.0000
  O3     O3        0.654428591738144    0.477398359376656    0.637849682212827  0.0000
  O1     O1        0.267598952829344    0.251929010770168    0.256115818033309  0.0000
  O1     O1        0.228239944252192    0.796985045053123    0.254757741730731  0.0000
  O3     O3        0.758348326008700    0.256872731696047    0.695314466460425  0.0000
  O1     O1        0.729626899287901    0.794649100117447    0.683630498972696  0.0000
  O1     O1        0.133808815568368    0.270702020719872    0.104749521388224  0.0000
  O1     O1        0.353494298482108    0.774507183014708    0.092270395147712  0.0000
  O1     O1        0.877892656766335    0.381692466475052    0.850240953830285  0.0000
  O3     O3        0.613562098346514    0.678910114544950    0.847500662814462  0.0000
  O1     O1        0.854981654684412    0.779913952591056    0.850088449349904  0.0000
  O3     O3        0.638661813842719    0.276216352290984    0.840926476509744  0.0000
  O1     O1        0.110894396712776    0.657707504046925    0.099177946384160  0.0000
  O1     O1        0.375080085143566    0.385519675024511    0.086869738818863  0.0000
  O3     O3        0.653746767027438    0.507010774757127    0.051452200179150  0.0000
  O1     O1        0.842062815334887    0.575280911476796    0.068005558849445  0.0000
  O1     O1        0.327819759588528    0.556331112734779    0.870554558881946  0.0000
  O1     O1        0.143989701157224    0.478170700323155    0.880658482670247  0.0000
  O1     O1        0.763785876661875    0.264113022661137    0.015030186385155  0.0000
  O3     O3        0.724717863846629    0.796002418049006    0.998046844870286  0.0000
  O1     O1        0.255245246881265    0.245518174420908    0.937244656066287  0.0000
  O1     O1        0.222854458196628    0.792314859427744    0.938377862664728  0.0000
