data_c00124.vasp
_audit_creation_method             Generated by GULP
_audit_author_name                 Salvador R. G. Balestra
_symmetry_space_group_name_H-M     'P 1             '
_symmetry_Int_Tables_number        1

loop_
_symmetry_equiv_pos_site_id
_symmetry_equiv_pos_as_xyz
_cell_length_a                       17.6416
_cell_length_b                        7.8359
_cell_length_c                       10.2412
_cell_angle_alpha                   90.0468
_cell_angle_beta                    90.3698
_cell_angle_gamma                   88.8427

loop_
_atom_site_label
_atom_site_type_symbol
_atom_site_fract_x
_atom_site_fract_y
_atom_site_fract_z
_atom_site_charge
  Ge     Ge        0.052090000000021    0.000000000000000    0.372269999999958  0.0000
  Ge     Ge        0.446526027584081    0.954591977424053    0.365433543102862  0.0000
  Ge     Ge        0.945814845916643    0.948757901843621    0.625070155735932  0.0000
  Ge     Ge        0.553357102386650    0.004929559434234    0.619218647005214  0.0000
  Ge     Ge        0.550766996513091    0.004720324091224    0.115574231258494  0.0000
  Ge     Ge        0.945785437177326    0.944424764204543    0.119208262035066  0.0000
  Ge     Ge        0.445075779322211    0.946308562337998    0.866775928713545  0.0000
  Ge     Ge        0.142699332831482    0.317005115122007    0.255880827648785  0.0000
  Ge     Ge        0.353832939232464    0.638704508484212    0.247769001400874  0.0000
  Ge     Ge        0.826771528553226    0.243417454538932    0.687893805365225  0.0000
  Ge     Ge        0.671788819102381    0.709795912497947    0.686958523146152  0.0000
  Ge     Ge        0.173177337336769    0.717602482936551    0.258459399480570  0.0000
  Ge     Ge        0.323791883406398    0.237288610381893    0.252976302378438  0.0000
  Ge     Ge        0.645190537368809    0.314638676444531    0.994935868872498  0.0000
  Ge     Ge        0.851386650529027    0.633764012179109    0.000356797706667  0.0000
  Ge     Ge        0.322196799010127    0.235468585414360    0.937151545797832  0.0000
  Ge     Ge        0.164032762793211    0.718099746109449    0.941949625861025  0.0000
  Ge     Ge        0.343912336388574    0.637672898085417    0.929385968087525  0.0000
  Ge     Ge        0.142019668260822    0.315152416749925    0.939185170636116  0.0000
  Ge     Ge        0.672195815826029    0.719064277477176    0.003658324893286  0.0000
  Ge     Ge        0.824093754898326    0.229445112105653    0.005337721947578  0.0000
  Si     Si        0.046402427392783    0.007446129644613    0.874502012577740  0.0000
  Si     Si        0.848924514594275    0.635152751797618    0.688580510542021  0.0000
  Si     Si        0.650010440111170    0.318327607560926    0.681994173045182  0.0000
  O1     O1        0.076671693113098    0.207048355603487    0.342191779207687  0.0000
  O1     O1        0.422413610240462    0.748216256681766    0.329844835942890  0.0000
  O1     O1        0.876334652303656    0.100993651854453    0.593775914027701  0.0000
  O1     O1        0.623359497918397    0.852987126594714    0.591015884135748  0.0000
  O3     O3        0.908140522375013    0.746998063885731    0.609360860742939  0.0000
  O3     O3        0.590369218866233    0.207287222654861    0.601447181784976  0.0000
  O1     O1        0.130030666370238    0.869628606850114    0.352836212229039  0.0000
  O1     O1        0.368810140428137    0.086150100796293    0.346690697340890  0.0000
  O1     O1        0.023075698870217    0.977623435655318    0.531581032350905  0.0000
  O1     O1        0.475144533735715    0.971077597649815    0.526266749637486  0.0000
  O1     O1        0.975767877401543    0.942278847675393    0.278379949957094  0.0000
  O1     O1        0.523563393725032    0.014614635746198    0.276126352225261  0.0000
  O3     O3        0.973510407090171    0.970891390167715    0.787704844476427  0.0000
  O1     O1        0.523859737127635    0.986875720897295    0.779007981489741  0.0000
  O1     O1        0.573826807811010    0.208101179489178    0.067417088969560  0.0000
  O1     O1        0.921466983148809    0.739400972290515    0.079241332416400  0.0000
  O1     O1        0.373804682347998    0.096862888594687    0.843340283896159  0.0000
  O3     O3        0.111709969782300    0.863917356585826    0.851011183200507  0.0000
  O1     O1        0.406304567894257    0.749818573137743    0.837416846281220  0.0000
  O3     O3        0.079558496982415    0.194164932026709    0.848057164715603  0.0000
  O1     O1        0.626742637640607    0.866147409491428    0.099585717758178  0.0000
  O1     O1        0.869775984548848    0.082380859476527    0.101946116558634  0.0000
  O1     O1        0.473369435571916    0.940102271813972    0.028673430968235  0.0000
  O3     O3        0.021989132656662    0.006524603018616    0.026480924953171  0.0000
  O1     O1        0.156702124140238    0.516563311961179    0.319408739175972  0.0000
  O1     O1        0.342208077379757    0.438609691822230    0.311832608859581  0.0000
  O3     O3        0.841661701334642    0.447891572745826    0.627859355994043  0.0000
  O3     O3        0.657016746205805    0.506596206289634    0.623521267768858  0.0000
  O1     O1        0.227943266933668    0.205745087773811    0.254977962548721  0.0000
  O1     O1        0.268762240794485    0.750701749623718    0.255200210778277  0.0000
  O3     O3        0.729891332575972    0.213904460819005    0.681241889280016  0.0000
  O3     O3        0.768694008950839    0.738710519543395    0.687632915159055  0.0000
  O1     O1        0.112360245176116    0.341622731346683    0.097287497657035  0.0000
  O1     O1        0.377292681358481    0.613432926894560    0.086859454139511  0.0000
  O1     O1        0.854914224745937    0.213597071821743    0.846792857431860  0.0000
  O1     O1        0.640972407646356    0.737548505815773    0.844335901856434  0.0000
  O3     O3        0.875373896099622    0.608047328620230    0.837670753657632  0.0000
  O3     O3        0.623998597410688    0.344133153573328    0.831058564612531  0.0000
  O1     O1        0.136543726551215    0.729079218135522    0.102274013537661  0.0000
  O1     O1        0.356127436679338    0.221195785254233    0.094974757656997  0.0000
  O1     O1        0.655222291652327    0.515132681437938    0.058472067936208  0.0000
  O1     O1        0.840401022181276    0.433179011696556    0.062037734065366  0.0000
  O1     O1        0.331099024763094    0.436921309910795    0.870932646354917  0.0000
  O1     O1        0.150376088729013    0.516336049087029    0.877706792454728  0.0000
  O1     O1        0.728098022212028    0.197475593005359    0.010297557567455  0.0000
  O1     O1        0.768155405796988    0.750444042335707    0.010494533544484  0.0000
  O1     O1        0.226591862774995    0.201170218758947    0.940764735670063  0.0000
  O1     O1        0.259454263952696    0.753371321382692    0.934795020296839  0.0000
