data_c00150.vasp
_audit_creation_method             Generated by GULP
_audit_author_name                 Salvador R. G. Balestra
_symmetry_space_group_name_H-M     'P 1             '
_symmetry_Int_Tables_number        1

loop_
_symmetry_equiv_pos_site_id
_symmetry_equiv_pos_as_xyz
_cell_length_a                       17.6089
_cell_length_b                        7.8447
_cell_length_c                       10.2438
_cell_angle_alpha                   90.1898
_cell_angle_beta                    90.5700
_cell_angle_gamma                   91.7548

loop_
_atom_site_label
_atom_site_type_symbol
_atom_site_fract_x
_atom_site_fract_y
_atom_site_fract_z
_atom_site_charge
  Ge     Ge        0.052090000000021    0.000000000000000    0.372269999999958  0.0000
  Ge     Ge        0.450915786792580    0.052171047013619    0.375729002313216  0.0000
  Ge     Ge        0.946833540319350    0.062843055182171    0.620921691873969  0.0000
  Ge     Ge        0.551067884511031    0.998156072237327    0.114666863508586  0.0000
  Ge     Ge        0.950463176800046    0.067138518140585    0.115819604710095  0.0000
  Ge     Ge        0.443723121947025    0.053986533222194    0.859284503941411  0.0000
  Ge     Ge        0.055788008874999    0.003101327997624    0.867447530790455  0.0000
  Ge     Ge        0.176147747823930    0.283821098748068    0.295861403661811  0.0000
  Ge     Ge        0.327769692995195    0.770396176399157    0.293740866496629  0.0000
  Ge     Ge        0.850127930359454    0.372081323275378    0.735373876970256  0.0000
  Ge     Ge        0.643215007414208    0.697016287336315    0.738202282936510  0.0000
  Ge     Ge        0.824401105968652    0.773367814405574    0.732178691376920  0.0000
  Ge     Ge        0.667854306385269    0.293742139559138    0.734386009435927  0.0000
  Ge     Ge        0.146787866336026    0.685662084241630    0.299311486107137  0.0000
  Ge     Ge        0.356182115832237    0.366338816440138    0.296113580741586  0.0000
  Ge     Ge        0.669909642066107    0.298802213231954    0.050567412561767  0.0000
  Ge     Ge        0.826361267550737    0.776664803033804    0.048925511899936  0.0000
  Ge     Ge        0.351530339341544    0.366492965271736    0.979452647945117  0.0000
  Ge     Ge        0.142597007584110    0.682133657752784    0.985073927042719  0.0000
  Ge     Ge        0.324798246341824    0.767577865400363    0.977253092116538  0.0000
  Ge     Ge        0.850599797144686    0.378117758043028    0.055572182458701  0.0000
  Si     Si        0.551769965058565    0.003491738739206    0.623049727596912  0.0000
  Si     Si        0.172468338007057    0.288451545997866    0.985972814194387  0.0000
  Si     Si        0.649762348017369    0.693302547815948    0.048415791286564  0.0000
  O1     O1        0.126955118621044    0.144552984812547    0.392523062043168  0.0000
  O1     O1        0.375318450005140    0.910973335326140    0.395151535698119  0.0000
  O1     O1        0.917747865906369    0.265274251358740    0.651699255039150  0.0000
  O3     O3        0.574141291537375    0.812726018431836    0.661494914345727  0.0000
  O1     O1        0.871590278121674    0.922995728633993    0.641086745046242  0.0000
  O3     O3        0.621705522785156    0.135788237398330    0.644114855230795  0.0000
  O1     O1        0.085114952856936    0.798331709256476    0.393305341181040  0.0000
  O1     O1        0.420705548129691    0.256970519635894    0.388042785329594  0.0000
  O1     O1        0.974347976700331    0.046962081529530    0.460031717486351  0.0000
  O3     O3        0.528709054555763    0.008966808828180    0.470791102750318  0.0000
  O1     O1        0.026269041333129    0.019116241019609    0.209074569572280  0.0000
  O1     O1        0.476763323721495    0.018429506100955    0.215302042402175  0.0000
  O1     O1        0.027767308718621    0.015188463814054    0.706731923257540  0.0000
  O3     O3        0.476464786577281    0.054769527682006    0.700017912082516  0.0000
  O1     O1        0.617531495350794    0.160641942682627    0.143633423190070  0.0000
  O1     O1        0.874220578761661    0.926265121106307    0.139567152913369  0.0000
  O1     O1        0.413672578571724    0.256710351804032    0.887890934632479  0.0000
  O1     O1        0.079584732377666    0.794674633244931    0.894203136174304  0.0000
  O1     O1        0.367333851425226    0.916102763344538    0.878233393935834  0.0000
  O3     O3        0.132128212603344    0.142171501042018    0.898758930355497  0.0000
  O3     O3        0.592396419386924    0.800441254532798    0.133135630792645  0.0000
  O1     O1        0.916510791702213    0.267613379429370    0.141738465531500  0.0000
  O1     O1        0.518936533836038    0.002251348936382    0.955703612069529  0.0000
  O1     O1        0.977727144427930    0.056316339377292    0.954589569719574  0.0000
  O1     O1        0.161094091081624    0.486164325738389    0.356659878030960  0.0000
  O1     O1        0.343040579376813    0.567147950276015    0.352222062295036  0.0000
  O1     O1        0.839166657381845    0.571981270920733    0.671995159167517  0.0000
  O1     O1        0.649483804217351    0.494516867381408    0.675473553333908  0.0000
  O1     O1        0.271233893849077    0.249162847164672    0.299130307005285  0.0000
  O1     O1        0.231884920264248    0.800843279906900    0.293206979488274  0.0000
  O1     O1        0.763662764971253    0.262651350298581    0.728788316826812  0.0000
  O1     O1        0.728426539091370    0.806191020775075    0.726154836898819  0.0000
  O3     O3        0.143398203242391    0.276923967397867    0.134603627167466  0.0000
  O1     O1        0.358907303900503    0.784971853098578    0.134787915180169  0.0000
  O1     O1        0.877831373904132    0.395543282388888    0.895098848711851  0.0000
  O3     O3        0.619638562678504    0.667565727921948    0.900205023226814  0.0000
  O1     O1        0.857433148769295    0.787894854316272    0.890209019006676  0.0000
  O1     O1        0.637507873125412    0.276255256062290    0.892372655367177  0.0000
  O1     O1        0.111064721123630    0.673009975879852    0.142317266527672  0.0000
  O1     O1        0.385950485119916    0.376092586350795    0.136835231236667  0.0000
  O3     O3        0.661029214988962    0.507339203396674    0.107734286603563  0.0000
  O1     O1        0.842930770468903    0.579430963430621    0.115547758903370  0.0000
  O1     O1        0.343291537703464    0.566980437161366    0.918565895545653  0.0000
  O3     O3        0.153245791400177    0.474706634792761    0.929403367412622  0.0000
  O1     O1        0.765205614064119    0.263471968606267    0.056770040700415  0.0000
  O3     O3        0.729166847990557    0.802049711518116    0.042948237845196  0.0000
  O3     O3        0.262625425470248    0.264216584813393    0.985327811537243  0.0000
  O1     O1        0.228596252368278    0.790452587657207    0.979061213312737  0.0000
