data_c00116.vasp
_audit_creation_method             Generated by GULP
_audit_author_name                 Salvador R. G. Balestra
_symmetry_space_group_name_H-M     'P 1             '
_symmetry_Int_Tables_number        1

loop_
_symmetry_equiv_pos_site_id
_symmetry_equiv_pos_as_xyz
_cell_length_a                       17.7566
_cell_length_b                        7.8309
_cell_length_c                       10.1127
_cell_angle_alpha                   88.4816
_cell_angle_beta                    89.9728
_cell_angle_gamma                   89.1764

loop_
_atom_site_label
_atom_site_type_symbol
_atom_site_fract_x
_atom_site_fract_y
_atom_site_fract_z
_atom_site_charge
  Ge     Ge        0.052090000000021    0.000000000000000    0.372269999999958  0.0000
  Ge     Ge        0.449680638802936    0.961102756483147    0.359957104335472  0.0000
  Ge     Ge        0.949286764697225    0.983139539867433    0.630914357310943  0.0000
  Ge     Ge        0.557194578387594    0.043340858383604    0.601260696235294  0.0000
  Ge     Ge        0.550357435535842    0.014875046589331    0.101910797911605  0.0000
  Ge     Ge        0.957330193776618    0.953681685198249    0.098993764951274  0.0000
  Ge     Ge        0.445583617221409    0.972756655132172    0.846150085816534  0.0000
  Ge     Ge        0.148379437779356    0.317536101519279    0.291285321393916  0.0000
  Ge     Ge        0.352285076333298    0.648757540109165    0.287902138977858  0.0000
  Ge     Ge        0.835002957404785    0.284130396481985    0.717959148725930  0.0000
  Ge     Ge        0.680194468975737    0.755883373870560    0.720174409235159  0.0000
  Ge     Ge        0.651384384931792    0.352612350233245    0.713269767545610  0.0000
  Ge     Ge        0.173484379623184    0.725020595247210    0.286692166361648  0.0000
  Ge     Ge        0.326609679679889    0.244589067048385    0.291835056399724  0.0000
  Ge     Ge        0.654325756191012    0.324064970575278    0.033910367143271  0.0000
  Ge     Ge        0.848987377141615    0.642648549350802    0.053382255297857  0.0000
  Ge     Ge        0.328381950800775    0.253365879450617    0.971762111464119  0.0000
  Ge     Ge        0.172046989744279    0.723460145911697    0.966852987071378  0.0000
  Ge     Ge        0.353736425051428    0.653904933475783    0.965090041085146  0.0000
  Ge     Ge        0.678103082533097    0.732212103841750    0.049921875772524  0.0000
  Ge     Ge        0.833354475068344    0.244000432499081    0.035161911017914  0.0000
  Si     Si        0.063993079153786    0.023071739288369    0.853660730116199  0.0000
  Si     Si        0.850134325251531    0.671074563231923    0.730993302444249  0.0000
  Si     Si        0.150759142918845    0.324830221010438    0.978608695648368  0.0000
  O1     O1        0.083828291244479    0.205889767134255    0.383122511155575  0.0000
  O1     O1        0.415227498254556    0.758522016313234    0.381390669367412  0.0000
  O1     O1        0.882419513358518    0.139901380246459    0.621567525588770  0.0000
  O1     O1        0.634466335216495    0.918854933397936    0.638977869300331  0.0000
  O3     O3        0.920635105247271    0.790013322755972    0.701837476800776  0.0000
  O1     O1        0.585836751920612    0.249063364738804    0.620815408265205  0.0000
  O1     O1        0.126564365454894    0.857881566918737    0.390053694632797  0.0000
  O1     O1        0.378247781399879    0.105739160077140    0.389643315331995  0.0000
  O1     O1        0.977232045375581    0.951674136333088    0.469509464803952  0.0000
  O1     O1        0.530923060323728    0.005788339744237    0.440604924449236  0.0000
  O1     O1        0.027145251690649    0.979954897193567    0.207884411720204  0.0000
  O1     O1        0.471926432356398    0.980677886861106    0.193062536244091  0.0000
  O3     O3        0.033837316570945    0.039285636847788    0.704239302413550  0.0000
  O1     O1        0.475699380410775    0.993387574847930    0.685192061303896  0.0000
  O1     O1        0.591629517817892    0.208870821716451    0.126733165391365  0.0000
  O1     O1        0.926104169910821    0.744678993739516    0.105767009622941  0.0000
  O1     O1        0.368371502940709    0.101135205441403    0.876051544951245  0.0000
  O3     O3        0.126381750763805    0.872870857936153    0.865914686374829  0.0000
  O1     O1        0.419183375734055    0.764913634405731    0.875628825521455  0.0000
  O2     O2        0.095802739453736    0.206879868153203    0.894324884243180  0.0000
  O1     O1        0.616985009058065    0.856841352334983    0.134986383723574  0.0000
  O1     O1        0.881988267080120    0.088773542160318    0.123284275475268  0.0000
  O1     O1        0.522912364010787    0.020463672738186    0.937863777013189  0.0000
  O3     O3        0.990289833088550    0.979708149686440    0.938801726079305  0.0000
  O1     O1        0.160625592375869    0.518214995704028    0.346234233475400  0.0000
  O1     O1        0.338817359374046    0.447771582230271    0.350516119836713  0.0000
  O3     O3        0.855421533772719    0.490550667507355    0.659008737054261  0.0000
  O1     O1        0.655548981644971    0.561837529488134    0.659487112311822  0.0000
  O1     O1        0.232283856252808    0.203273781944829    0.296210814192641  0.0000
  O1     O1        0.268288273203116    0.762964534287906    0.283315550638479  0.0000
  O1     O1        0.739563918549852    0.258264408790009    0.706171072175300  0.0000
  O3     O3        0.775960811830129    0.780934316939248    0.690573227806908  0.0000
  O3     O3        0.119414015204183    0.337990330645513    0.126717344150729  0.0000
  O1     O1        0.382697814971283    0.635278479348619    0.126885391212626  0.0000
  O1     O1        0.866524073073905    0.237211273411397    0.874899179848448  0.0000
  O1     O1        0.658271815013708    0.766789869065425    0.884629237344985  0.0000
  O3     O3        0.839070296635250    0.610080442720972    0.883668532856548  0.0000
  O1     O1        0.621643380266197    0.349680923159518    0.874534772429984  0.0000
  O1     O1        0.141022662825541    0.744247917948826    0.125492380633333  0.0000
  O1     O1        0.360146772985499    0.236029221932513    0.131709811947748  0.0000
  O1     O1        0.667498125325163    0.520144965325749    0.097178396998835  0.0000
  O1     O1        0.848460000288497    0.435755141241512    0.111231330608740  0.0000
  O1     O1        0.348086961610998    0.451541026791338    0.905250265024144  0.0000
  O3     O3        0.156099891197287    0.514987744560696    0.916001205661572  0.0000
  O1     O1        0.738251069667777    0.209355703671105    0.029929324912226  0.0000
  O1     O1        0.770787240660628    0.766849475912748    0.087233272594485  0.0000
  O3     O3        0.231798577312405    0.231762437417486    0.982273659516715  0.0000
  O1     O1        0.266956472460221    0.755332090020549    0.957541627299580  0.0000
