data_c00189.vasp
_audit_creation_method             Generated by GULP
_audit_author_name                 Salvador R. G. Balestra
_symmetry_space_group_name_H-M     'P 1             '
_symmetry_Int_Tables_number        1

loop_
_symmetry_equiv_pos_site_id
_symmetry_equiv_pos_as_xyz
_cell_length_a                       17.8439
_cell_length_b                        7.8365
_cell_length_c                       10.3571
_cell_angle_alpha                   90.0532
_cell_angle_beta                    90.9328
_cell_angle_gamma                   89.7764

loop_
_atom_site_label
_atom_site_type_symbol
_atom_site_fract_x
_atom_site_fract_y
_atom_site_fract_z
_atom_site_charge
  Ge     Ge        0.052090000000021    0.000000000000000    0.372269999999958  0.0000
  Ge     Ge        0.447648606670984    0.030907280865883    0.409338753795397  0.0000
  Ge     Ge        0.941056945287838    0.992617934457484    0.613755090078540  0.0000
  Ge     Ge        0.554559188338774    0.029019373952030    0.160988212949606  0.0000
  Ge     Ge        0.949364914979213    0.004900765036276    0.113602389781386  0.0000
  Ge     Ge        0.447920702038308    0.021835342738366    0.909218643932484  0.0000
  Ge     Ge        0.052113521623208    0.998709248449486    0.863831801434718  0.0000
  Ge     Ge        0.172395963028325    0.279501711517576    0.298183988347895  0.0000
  Ge     Ge        0.331109385178780    0.739201351963497    0.297750378861823  0.0000
  Ge     Ge        0.823029081326465    0.278960222368202    0.732758626068688  0.0000
  Ge     Ge        0.660808678952023    0.734853376824974    0.729385673348571  0.0000
  Ge     Ge        0.842504662708938    0.683228468061756    0.720035831321547  0.0000
  Ge     Ge        0.151813717473572    0.684849062550417    0.302269013377820  0.0000
  Ge     Ge        0.647829292642618    0.343462689578376    0.045974088593759  0.0000
  Ge     Ge        0.849899574552528    0.689027787931525    0.034850172102054  0.0000
  Ge     Ge        0.349653523326407    0.338259685204374    0.987917970590753  0.0000
  Ge     Ge        0.148063496661757    0.685811215682385    0.985977381517998  0.0000
  Ge     Ge        0.326754595819978    0.748005941809123    0.984622399461506  0.0000
  Ge     Ge        0.171889081414525    0.276346138193842    0.984337697016559  0.0000
  Ge     Ge        0.671259829766996    0.750686991613417    0.041790216906836  0.0000
  Ge     Ge        0.825683633887720    0.282400740878351    0.047054178062894  0.0000
  Si     Si        0.549793499278822    0.026680635552559    0.662637766117931  0.0000
  Si     Si        0.646129312066080    0.336289353070467    0.738278029574989  0.0000
  Si     Si        0.348137372275412    0.335116797000746    0.294452740602476  0.0000
  O1     O1        0.124110791760070    0.143685225624947    0.394747625107842  0.0000
  O1     O1        0.384628774679876    0.867335787272077    0.395381543103454  0.0000
  O1     O1        0.867888769674845    0.129036156733531    0.643266551849464  0.0000
  O3     O3        0.608190031828567    0.874264457735700    0.633927146078901  0.0000
  O1     O1        0.904871575726919    0.791528568307737    0.627303986029252  0.0000
  O2     O2        0.590778270298996    0.211258950580993    0.657121345942883  0.0000
  O1     O1        0.089822317625977    0.799957186327536    0.392808608235190  0.0000
  O3     O3        0.405949741157715    0.226830066673696    0.380888932486516  0.0000
  O1     O1        0.973209217728685    0.027856221243329    0.460160755666584  0.0000
  O3     O3        0.478594101636061    0.028020300577774    0.568785035194707  0.0000
  O1     O1        0.024868331827145    0.028150075677225    0.212796471165439  0.0000
  O1     O1        0.525158942320959    0.007634194823287    0.316752933468931  0.0000
  O1     O1        0.020475882033263    0.018060286619489    0.707233039325353  0.0000
  O3     O3        0.520936868915207    0.993189400233839    0.806779990947867  0.0000
  O1     O1        0.581245548004638    0.235751448581538    0.128250220798162  0.0000
  O1     O1        0.913970426204904    0.801510247540501    0.124305241443949  0.0000
  O1     O1        0.414367373605961    0.227311017646073    0.901942597334894  0.0000
  O1     O1        0.082113809687139    0.793907530308829    0.896796126456254  0.0000
  O1     O1        0.374703648818651    0.881970048678743    0.886289168108005  0.0000
  O1     O1        0.125373106141431    0.137050090116815    0.885950517815580  0.0000
  O1     O1        0.629890258353549    0.895750444714934    0.140172266959985  0.0000
  O1     O1        0.877837527646193    0.148078240882809    0.141674983527544  0.0000
  O1     O1        0.481277877615634    0.974271139338373    0.061739551122577  0.0000
  O1     O1        0.977605267043533    0.047042428738604    0.958620161838354  0.0000
  O1     O1        0.158392808715662    0.481294848662321    0.358677803687852  0.0000
  O3     O3        0.339170087655404    0.526628515990012    0.346337439576644  0.0000
  O1     O1        0.837912248937926    0.476523829766252    0.667102828426326  0.0000
  O3     O3        0.648220605056185    0.524237367259945    0.677251027005033  0.0000
  O3     O3        0.268026351962613    0.239798860530629    0.295665210690381  0.0000
  O1     O1        0.237452043600519    0.786430444700633    0.306665698049751  0.0000
  O3     O3        0.727255720322723    0.246644437339824    0.737960910983813  0.0000
  O1     O1        0.754694892795825    0.775864928746180    0.715356034920134  0.0000
  O1     O1        0.141009860315753    0.265277830944076    0.140570839435214  0.0000
  O1     O1        0.359226177417257    0.763413669571993    0.141950889231239  0.0000
  O1     O1        0.854686586355496    0.271039694740410    0.889241157161447  0.0000
  O1     O1        0.635045766199568    0.756916722913311    0.886829064184650  0.0000
  O1     O1        0.877171008762630    0.683984479316345    0.876104669709618  0.0000
  O3     O3        0.619398726204942    0.354458464763126    0.884877083519633  0.0000
  O1     O1        0.120552006870211    0.678995017731597    0.144078331837043  0.0000
  O3     O3        0.378583407604739    0.341443399202516    0.149233038953771  0.0000
  O1     O1        0.658285914669984    0.547313430802798    0.101614550940147  0.0000
  O1     O1        0.839570699415847    0.489904900632812    0.097550793293683  0.0000
  O1     O1        0.339617863585664    0.540821632814246    0.932003523258468  0.0000
  O1     O1        0.158273410079082    0.482189666984121    0.929363383706817  0.0000
  O1     O1        0.732158423844977    0.237021904634678    0.056825261417486  0.0000
  O1     O1        0.764976032418447    0.794012890762448    0.034258226442622  0.0000
  O1     O1        0.265879134686265    0.231464817632631    0.980935514164318  0.0000
  O1     O1        0.232614221931348    0.791205969740095    0.981056394378574  0.0000
