data_c00103.vasp
_audit_creation_method             Generated by GULP
_audit_author_name                 Salvador R. G. Balestra
_symmetry_space_group_name_H-M     'P 1             '
_symmetry_Int_Tables_number        1

loop_
_symmetry_equiv_pos_site_id
_symmetry_equiv_pos_as_xyz
_cell_length_a                       17.6809
_cell_length_b                        7.8343
_cell_length_c                       10.1928
_cell_angle_alpha                   89.7358
_cell_angle_beta                    90.5548
_cell_angle_gamma                   91.0840

loop_
_atom_site_label
_atom_site_type_symbol
_atom_site_fract_x
_atom_site_fract_y
_atom_site_fract_z
_atom_site_charge
  Ge     Ge        0.052090000000021    0.000000000000000    0.372269999999958  0.0000
  Ge     Ge        0.436511244546457    0.055796743207763    0.408042734529570  0.0000
  Ge     Ge        0.942447925021173    0.055523917944001    0.622396142270138  0.0000
  Ge     Ge        0.543687616456592    0.008899127700275    0.658098036265968  0.0000
  Ge     Ge        0.548595455239819    0.006991295262901    0.168231211311650  0.0000
  Ge     Ge        0.946386007196573    0.064762671275236    0.118265754385769  0.0000
  Ge     Ge        0.442799843335299    0.069322877122707    0.914855020997964  0.0000
  Ge     Ge        0.168073289365912    0.294881798175378    0.297757045996068  0.0000
  Ge     Ge        0.322108908157670    0.758570372818911    0.297253270488138  0.0000
  Ge     Ge        0.848693255408149    0.370100568517689    0.735113765375627  0.0000
  Ge     Ge        0.640301147624345    0.691241667569308    0.727067071546600  0.0000
  Ge     Ge        0.820144974727399    0.771955713951862    0.730701206499619  0.0000
  Ge     Ge        0.668698074437701    0.288601835919435    0.732341500136779  0.0000
  Ge     Ge        0.669232814732814    0.291281320507072    0.051091357136596  0.0000
  Ge     Ge        0.820894914772679    0.779577078067370    0.048903064479741  0.0000
  Ge     Ge        0.339921735106486    0.378690011481191    0.972534309378107  0.0000
  Ge     Ge        0.138521346488674    0.704889661724159    0.991310956025035  0.0000
  Ge     Ge        0.318625853654476    0.781938897989525    0.981565205875873  0.0000
  Ge     Ge        0.161035362351704    0.297981936518702    0.978685706239568  0.0000
  Ge     Ge        0.641440799674793    0.696121363615857    0.046323160659998  0.0000
  Ge     Ge        0.847893970701856    0.378449020567543    0.054730210459204  0.0000
  Si     Si        0.045037258911106    0.011029913201074    0.870500228680587  0.0000
  Si     Si        0.145006632016990    0.687210821073581    0.302079469476812  0.0000
  Si     Si        0.344269347781405    0.366354285122828    0.287997159635254  0.0000
  O1     O1        0.122404475351167    0.152187801502838    0.397086109733612  0.0000
  O1     O1        0.366202515085811    0.903125949273639    0.397569101934133  0.0000
  O1     O1        0.915324845959252    0.260771887689574    0.649766192826478  0.0000
  O1     O1        0.575455820790376    0.805006363809794    0.637317458502292  0.0000
  O1     O1        0.866274459941229    0.920070544790055    0.635849093546098  0.0000
  O1     O1        0.618799763626598    0.148380782515145    0.635654858134046  0.0000
  O3     O3        0.089220054871544    0.797490940711152    0.389857375676570  0.0000
  O3     O3        0.407408744195349    0.256478263741778    0.360775406000555  0.0000
  O1     O1        0.974754143827816    0.035182196542080    0.464381843785653  0.0000
  O1     O1        0.464983647441588    0.060255702933578    0.570253517379323  0.0000
  O1     O1        0.023158146574657    0.018796423533274    0.210554077487575  0.0000
  O1     O1        0.517656766785295    0.004543074342030    0.327778372942966  0.0000
  O3     O3        0.019341010408411    0.000345599435013    0.719468844825258  0.0000
  O1     O1        0.518465920713088    0.026439425298732    0.821762427947381  0.0000
  O1     O1        0.623909426101885    0.145935242688128    0.149601595408682  0.0000
  O1     O1        0.872585171755934    0.921809675949881    0.140612762197386  0.0000
  O1     O1        0.406958817053293    0.270795922305084    0.889917006478502  0.0000
  O3     O3        0.069471447834528    0.822317245607297    0.915871539069621  0.0000
  O1     O1        0.368864227253433    0.925446243784084    0.890316872605131  0.0000
  O3     O3        0.113378304681772    0.148113176238239    0.884756135560380  0.0000
  O1     O1        0.574789603728054    0.802525671104657    0.131890977294564  0.0000
  O1     O1        0.912700076033573    0.266308669879225    0.144411584498169  0.0000
  O1     O1        0.471778774120098    0.065868588756115    0.076593650739796  0.0000
  O3     O3        0.973164119581641    0.066763351289688    0.953728493397552  0.0000
  O3     O3        0.153572808013155    0.498486821833082    0.359546147496337  0.0000
  O3     O3        0.338488508765254    0.552338041610779    0.353080035782350  0.0000
  O1     O1        0.835189249674733    0.569993253192355    0.670650632416906  0.0000
  O1     O1        0.653337044429826    0.490739465296114    0.669134684909690  0.0000
  O3     O3        0.264615245097161    0.262583670613071    0.297064128994551  0.0000
  O3     O3        0.225450480277038    0.787460777283710    0.295972799209848  0.0000
  O1     O1        0.764219458949011    0.255104808284503    0.731500695756400  0.0000
  O1     O1        0.724610809543107    0.805868125162197    0.728450731792460  0.0000
  O1     O1        0.134561629866630    0.275349124680880    0.139786435086216  0.0000
  O1     O1        0.353101772934728    0.793458427934902    0.140652757445783  0.0000
  O1     O1        0.876799881077994    0.399770729299781    0.894518204583829  0.0000
  O1     O1        0.610954694049382    0.673394688673654    0.887040765253117  0.0000
  O1     O1        0.852227705998993    0.789567316687218    0.889747829170769  0.0000
  O1     O1        0.636887794291968    0.274928261423180    0.891767905840173  0.0000
  O3     O3        0.113894988167632    0.671024344051180    0.153440577986895  0.0000
  O3     O3        0.364567855191744    0.400252175410030    0.137333821701943  0.0000
  O1     O1        0.654848675743927    0.495221970166544    0.108247301821254  0.0000
  O1     O1        0.834535975857971    0.577990051319635    0.114354555317428  0.0000
  O1     O1        0.330317502397135    0.581506416443639    0.915582734002911  0.0000
  O1     O1        0.144307443993182    0.504060773583378    0.926034466056283  0.0000
  O1     O1        0.764771898033628    0.259225304813131    0.052316375683172  0.0000
  O1     O1        0.725340424708620    0.813191980969828    0.050152941334196  0.0000
  O1     O1        0.256008158415807    0.264458101484679    0.964969042952465  0.0000
  O1     O1        0.222910912689450    0.815559361990499    0.981136568344945  0.0000
