data_c00171.vasp
_audit_creation_method             Generated by GULP
_audit_author_name                 Salvador R. G. Balestra
_symmetry_space_group_name_H-M     'P 1             '
_symmetry_Int_Tables_number        1

loop_
_symmetry_equiv_pos_site_id
_symmetry_equiv_pos_as_xyz
_cell_length_a                       17.5645
_cell_length_b                        7.8435
_cell_length_c                       10.2399
_cell_angle_alpha                   89.4323
_cell_angle_beta                    91.0465
_cell_angle_gamma                   88.3214

loop_
_atom_site_label
_atom_site_type_symbol
_atom_site_fract_x
_atom_site_fract_y
_atom_site_fract_z
_atom_site_charge
  Ge     Ge        0.052090000000021    0.000000000000000    0.372269999999958  0.0000
  Ge     Ge        0.444094651122904    0.955901196120896    0.363637977902647  0.0000
  Ge     Ge        0.940888006978180    0.951128098007013    0.614112361355429  0.0000
  Ge     Ge        0.554135559107551    0.002687240642743    0.120799660084176  0.0000
  Ge     Ge        0.940826147609288    0.941424215393286    0.124644925248674  0.0000
  Ge     Ge        0.445561432511414    0.947706414820479    0.866734819395970  0.0000
  Ge     Ge        0.041974183262792    0.012954812508000    0.872210145876600  0.0000
  Ge     Ge        0.145444067585113    0.315348835595262    0.254629614101898  0.0000
  Ge     Ge        0.355381245767361    0.633426775838096    0.250866295033422  0.0000
  Ge     Ge        0.818822922491958    0.237379020906356    0.686140815917633  0.0000
  Ge     Ge        0.659592029331013    0.721371126907866    0.693696575386368  0.0000
  Ge     Ge        0.841556864709448    0.640382316662429    0.686514989089548  0.0000
  Ge     Ge        0.638098776174359    0.316216904450373    0.689235321454979  0.0000
  Ge     Ge        0.172270685301337    0.713651060826721    0.258829295910794  0.0000
  Ge     Ge        0.850463812137180    0.627965987840946    0.003915496929417  0.0000
  Ge     Ge        0.320894570823807    0.235203421248022    0.940530881872347  0.0000
  Ge     Ge        0.167833755895439    0.724420263668660    0.943115965237088  0.0000
  Ge     Ge        0.348412694080449    0.637454148321422    0.936298260400028  0.0000
  Ge     Ge        0.141711924395155    0.322514444811618    0.935990942401304  0.0000
  Ge     Ge        0.667897161417319    0.706787598024268    0.008642379314699  0.0000
  Ge     Ge        0.820658311985331    0.228480295562010    0.003184868336761  0.0000
  Si     Si        0.542926258391978    0.009520413146070    0.616552147680097  0.0000
  Si     Si        0.324906665914683    0.239937956174631    0.250762655073927  0.0000
  Si     Si        0.642658141945499    0.311848776162526    0.998650071032546  0.0000
  O1     O1        0.081133910665498    0.202775274698562    0.340974572404779  0.0000
  O1     O1        0.419378592564380    0.748257574399638    0.340072159448329  0.0000
  O1     O1        0.869250148821147    0.102902186224780    0.587602695374828  0.0000
  O3     O3        0.610015570103242    0.868135061798839    0.594963974752318  0.0000
  O1     O1        0.903254455971696    0.753660056371386    0.593507261915782  0.0000
  O3     O3        0.573558494692207    0.199486018916082    0.599724836069268  0.0000
  O1     O1        0.128413028583935    0.863365906402473    0.353970207358105  0.0000
  O3     O3        0.366478454752625    0.092012526899126    0.335936119921640  0.0000
  O1     O1        0.021843542052265    0.987675178460858    0.531555820862458  0.0000
  O3     O3        0.469863893607333    0.977114722050215    0.527531145626654  0.0000
  O1     O1        0.971785952620927    0.947992056609455    0.284501005992159  0.0000
  O1     O1        0.522583944068036    0.009908619322786    0.278269628455960  0.0000
  O1     O1        0.965404139377126    0.966132687069029    0.778570789893703  0.0000
  O3     O3        0.520211834129355    0.989819063400125    0.768419373142776  0.0000
  O3     O3        0.583613242665502    0.205190356078669    0.080343988629911  0.0000
  O1     O1        0.917994663284672    0.734765040255065    0.089808192864285  0.0000
  O1     O1        0.371861280556415    0.096260089232199    0.848448248755799  0.0000
  O1     O1        0.116347782792363    0.868337083416125    0.850088123135801  0.0000
  O1     O1        0.409367348729750    0.749186981596604    0.841590605200860  0.0000
  O1     O1        0.075438473966719    0.214884330694674    0.847183410701942  0.0000
  O1     O1        0.625290600671919    0.848675776215177    0.111271318373331  0.0000
  O1     O1        0.860787693084347    0.070584676628447    0.099031170368007  0.0000
  O1     O1        0.477171972996712    0.951562411577663    0.026455548339182  0.0000
  O1     O1        0.014945429278792    0.008355275886775    0.033676649713250  0.0000
  O1     O1        0.153785714309758    0.513934020710276    0.319711361774640  0.0000
  O3     O3        0.344099734328262    0.425827120949390    0.307218837438216  0.0000
  O1     O1        0.828591874326715    0.441955990671443    0.625926864850046  0.0000
  O1     O1        0.644406015078971    0.519986755894849    0.631924591618132  0.0000
  O3     O3        0.234612850888571    0.212975401133829    0.253159653588803  0.0000
  O1     O1        0.268509591439553    0.739216525202242    0.257556436684181  0.0000
  O1     O1        0.722930779437904    0.202504976081680    0.683611487673864  0.0000
  O1     O1        0.755677989706019    0.753476044796485    0.691682370628560  0.0000
  O1     O1        0.114223853131611    0.338226721367683    0.096203095951501  0.0000
  O1     O1        0.385170127065346    0.623786102203178    0.093444801084375  0.0000
  O1     O1        0.852241329661263    0.217631826318809    0.845342915310937  0.0000
  O1     O1        0.630802954958516    0.735600167078833    0.853268861575612  0.0000
  O1     O1        0.876734453354807    0.615491677467898    0.843500727280617  0.0000
  O3     O3        0.611583079652450    0.337657934625235    0.850793344916512  0.0000
  O1     O1        0.136455091768260    0.734106032904080    0.101745238993090  0.0000
  O3     O3        0.353232901977014    0.228597958235426    0.102138314196147  0.0000
  O3     O3        0.654325352802875    0.497098012957613    0.059913245533095  0.0000
  O1     O1        0.842771214773838    0.424678488952095    0.064676685675726  0.0000
  O1     O1        0.333359384291515    0.438725221439602    0.879086779909995  0.0000
  O1     O1        0.153972984013368    0.523769801231484    0.878795149074672  0.0000
  O3     O3        0.722877961348392    0.206819544607659    0.996668429797193  0.0000
  O1     O1        0.763931817216219    0.736479788517387    0.009047628323141  0.0000
  O1     O1        0.225473093334784    0.200688654935353    0.934304319479301  0.0000
  O1     O1        0.263768469999388    0.755317940218566    0.944208921696529  0.0000
