data_c00195.vasp
_audit_creation_method             Generated by GULP
_audit_author_name                 Salvador R. G. Balestra
_symmetry_space_group_name_H-M     'P 1             '
_symmetry_Int_Tables_number        1

loop_
_symmetry_equiv_pos_site_id
_symmetry_equiv_pos_as_xyz
_cell_length_a                       17.5703
_cell_length_b                        7.8400
_cell_length_c                       10.1849
_cell_angle_alpha                   89.0929
_cell_angle_beta                    89.8367
_cell_angle_gamma                   91.7228

loop_
_atom_site_label
_atom_site_type_symbol
_atom_site_fract_x
_atom_site_fract_y
_atom_site_fract_z
_atom_site_charge
  Ge     Ge        0.052090000000021    0.000000000000000    0.372269999999958  0.0000
  Ge     Ge        0.449780740169133    0.064542865720612    0.380696386329737  0.0000
  Ge     Ge        0.946119442519848    0.059286722406313    0.621056140369669  0.0000
  Ge     Ge        0.549449485943369    0.998475576473453    0.121301269407356  0.0000
  Ge     Ge        0.954367455829015    0.063548462627936    0.111970715538768  0.0000
  Ge     Ge        0.449562254289683    0.071032559294089    0.860970948201651  0.0000
  Ge     Ge        0.061299908888466    0.010932370668367    0.860032869518485  0.0000
  Ge     Ge        0.174577432091663    0.287068373908040    0.292433537311330  0.0000
  Ge     Ge        0.328768947164977    0.781514038544961    0.297134244641367  0.0000
  Ge     Ge        0.856283124012975    0.379581732517144    0.732912777678044  0.0000
  Ge     Ge        0.647848052262618    0.702926643420970    0.735132189612689  0.0000
  Ge     Ge        0.672162485198694    0.304385819684484    0.729482132134684  0.0000
  Ge     Ge        0.149692785276679    0.692192295531492    0.295871874260723  0.0000
  Ge     Ge        0.354786435104563    0.376926172719197    0.297129413304936  0.0000
  Ge     Ge        0.673932786165880    0.288631176733148    0.047456332141958  0.0000
  Ge     Ge        0.827439673880594    0.775492773262390    0.047017108478142  0.0000
  Ge     Ge        0.359697460180062    0.385279437848283    0.978724589789950  0.0000
  Ge     Ge        0.329174285387634    0.785778301183255    0.978605939862311  0.0000
  Ge     Ge        0.176703867862126    0.305304314081782    0.975927061658016  0.0000
  Ge     Ge        0.648338644556215    0.690150673965689    0.055105615115467  0.0000
  Ge     Ge        0.854436951122126    0.373935101371405    0.050142541658224  0.0000
  Si     Si        0.557671238108931    0.016153729634846    0.618989367332398  0.0000
  Si     Si        0.828156276752298    0.772000710345358    0.735074081309559  0.0000
  Si     Si        0.150871262684754    0.701095853836865    0.984462189690048  0.0000
  O1     O1        0.125328528134494    0.148029342187642    0.394327040662957  0.0000
  O1     O1        0.377100079665131    0.914883846748210    0.401235793997802  0.0000
  O1     O1        0.919864575897192    0.265717227406260    0.643999366709429  0.0000
  O3     O3        0.583501435204858    0.825913314151622    0.652071572216953  0.0000
  O3     O3        0.869509350173759    0.921957270461680    0.651669558211094  0.0000
  O3     O3        0.627701251970093    0.147748546226819    0.637772581110553  0.0000
  O1     O1        0.084892940903191    0.796659838352145    0.388627188285202  0.0000
  O1     O1        0.416218442796998    0.265681556774247    0.395557562308178  0.0000
  O1     O1        0.971840234717209    0.038036679166510    0.458491894476209  0.0000
  O3     O3        0.530822307576892    0.024022481897546    0.468039661498157  0.0000
  O1     O1        0.029899594993376    0.021069172048211    0.207056809573334  0.0000
  O1     O1        0.474604296045897    0.044244234864254    0.216839176089083  0.0000
  O1     O1        0.028475228889404    0.007686831471302    0.701055775178092  0.0000
  O3     O3        0.482788835646721    0.065423167502285    0.700527208338580  0.0000
  O1     O1        0.623922792889057    0.143820673764330    0.141549413193587  0.0000
  O1     O1        0.880393165214633    0.915698643653775    0.135280653668913  0.0000
  O1     O1        0.425878305441208    0.277822308961975    0.891667839213033  0.0000
  O3     O3        0.091519314997776    0.808321942282504    0.900791517832422  0.0000
  O1     O1        0.368896261562174    0.942709581260192    0.880605358971117  0.0000
  O1     O1        0.132472777723941    0.164670463777015    0.872656429181352  0.0000
  O1     O1        0.583444104478851    0.796527762532985    0.145643230614802  0.0000
  O1     O1        0.918174605375065    0.261578299444866    0.140514825473633  0.0000
  O1     O1        0.521046753028652    0.003092711149732    0.958961446116789  0.0000
  O1     O1        0.982988278444727    0.059908546947684    0.950125359875012  0.0000
  O1     O1        0.161780053549287    0.490044216091511    0.352066101743040  0.0000
  O1     O1        0.340240924458232    0.575121644030114    0.355241951739709  0.0000
  O3     O3        0.846320844784571    0.588083359154247    0.675301539277846  0.0000
  O1     O1        0.652021321889424    0.504037343491553    0.668139421808212  0.0000
  O1     O1        0.270739323786690    0.256465602342187    0.290964493289276  0.0000
  O1     O1        0.232853250789119    0.814660448492354    0.298769939623154  0.0000
  O1     O1        0.768304918675072    0.278279022353945    0.725114265078545  0.0000
  O3     O3        0.737888260481752    0.799512094402903    0.733743844983814  0.0000
  O1     O1        0.142421384356129    0.273029492416895    0.132615403465664  0.0000
  O1     O1        0.361708756834183    0.801347000461273    0.137495584704603  0.0000
  O1     O1        0.887601124668801    0.388106759165990    0.890749972434412  0.0000
  O1     O1        0.618864064535945    0.675346044313226    0.894046221482268  0.0000
  O3     O3        0.857809955323225    0.778618083877913    0.884262403880627  0.0000
  O1     O1        0.640131179863643    0.283714914669797    0.888345396376010  0.0000
  O3     O3        0.120899694943529    0.676425282010364    0.132986741672138  0.0000
  O1     O1        0.389137562734107    0.397508010399756    0.139268564628573  0.0000
  O1     O1        0.661477247343627    0.488745121278023    0.112767284403548  0.0000
  O1     O1        0.840608552418537    0.571733297092617    0.109557145879579  0.0000
  O1     O1        0.351177787302693    0.589356903451477    0.918591260127563  0.0000
  O3     O3        0.161607658353996    0.515051940676798    0.924486406613541  0.0000
  O1     O1        0.769614449532379    0.256199250080224    0.044252012163283  0.0000
  O1     O1        0.732295889398420    0.811436578963782    0.054555476537320  0.0000
  O1     O1        0.272939155042842    0.277427344281808    0.974206306179862  0.0000
  O3     O3        0.231397457796243    0.805447012555108    0.984827954127881  0.0000
