data_c00192.vasp
_audit_creation_method             Generated by GULP
_audit_author_name                 Salvador R. G. Balestra
_symmetry_space_group_name_H-M     'P 1             '
_symmetry_Int_Tables_number        1

loop_
_symmetry_equiv_pos_site_id
_symmetry_equiv_pos_as_xyz
_cell_length_a                       17.5635
_cell_length_b                        7.8432
_cell_length_c                       10.2464
_cell_angle_alpha                   89.6837
_cell_angle_beta                    90.0097
_cell_angle_gamma                   91.6636

loop_
_atom_site_label
_atom_site_type_symbol
_atom_site_fract_x
_atom_site_fract_y
_atom_site_fract_z
_atom_site_charge
  Ge     Ge        0.052090000000021    0.000000000000000    0.372269999999958  0.0000
  Ge     Ge        0.452466005739736    0.054659365901068    0.414233030204136  0.0000
  Ge     Ge        0.945552553952309    0.061644559692595    0.619658893850516  0.0000
  Ge     Ge        0.560007688016748    0.015042601601419    0.164398891400557  0.0000
  Ge     Ge        0.953365259199075    0.077596925123170    0.114284512211172  0.0000
  Ge     Ge        0.454450030871457    0.075750901455727    0.911274823504312  0.0000
  Ge     Ge        0.057864269925122    0.010398106342795    0.862091670671691  0.0000
  Ge     Ge        0.177110816182902    0.284481806644540    0.297581142008948  0.0000
  Ge     Ge        0.330046328512255    0.771352552104487    0.303031767831921  0.0000
  Ge     Ge        0.854260039090762    0.378751074225384    0.738643548730585  0.0000
  Ge     Ge        0.650573585926482    0.704546135249337    0.732044539524981  0.0000
  Ge     Ge        0.670179607409250    0.303550699150803    0.738760433258062  0.0000
  Ge     Ge        0.148807206471475    0.686073322158820    0.302778868734094  0.0000
  Ge     Ge        0.358772939324218    0.369263542230146    0.296056655798008  0.0000
  Ge     Ge        0.674450856514499    0.314265313687921    0.053069599137292  0.0000
  Ge     Ge        0.827714259700427    0.790063448502235    0.043068498404206  0.0000
  Ge     Ge        0.358398214074225    0.387568386455960    0.979376197064907  0.0000
  Ge     Ge        0.149227211201707    0.698116495797687    0.986178021439482  0.0000
  Ge     Ge        0.330126406856406    0.788032933643659    0.987076699132099  0.0000
  Ge     Ge        0.178274467127620    0.294904063806932    0.981185152952869  0.0000
  Ge     Ge        0.857055689007835    0.391703621319558    0.053453473704501  0.0000
  Si     Si        0.555465910136748    0.014970684606411    0.663500149615568  0.0000
  Si     Si        0.828974380428307    0.773959605569319    0.733402440292737  0.0000
  Si     Si        0.650785186108378    0.709630965391494    0.042223534548653  0.0000
  O1     O1        0.127302192500853    0.142715134127056    0.394373030994526  0.0000
  O1     O1        0.375644756928518    0.917161496129007    0.401271394364495  0.0000
  O1     O1        0.915830388903335    0.264873649228485    0.645805542909344  0.0000
  O3     O3        0.588528361491262    0.827447701492601    0.644210392098640  0.0000
  O3     O3        0.872022663263462    0.915152687289543    0.646180257233094  0.0000
  O3     O3        0.622757371233455    0.155869573730657    0.641320559670838  0.0000
  O1     O1        0.084475487654505    0.797396950936773    0.392974258463400  0.0000
  O1     O1        0.425883156304705    0.258683589977045    0.380159929224259  0.0000
  O1     O1        0.972543015472150    0.044770669051797    0.458502462536681  0.0000
  O3     O3        0.482684366371031    0.047638212439801    0.576083737008641  0.0000
  O1     O1        0.026958114325869    0.020180794597412    0.208801018074712  0.0000
  O1     O1        0.528473532156112    0.995963712441457    0.322193816025473  0.0000
  O1     O1        0.027210386766746    0.016054915021390    0.702704999065975  0.0000
  O3     O3        0.530530891221371    0.029677176903037    0.815010328176913  0.0000
  O1     O1        0.630288905722477    0.171470646520298    0.156127435638624  0.0000
  O1     O1        0.874352404199187    0.941365405364947    0.130600404276830  0.0000
  O1     O1        0.421785449646898    0.278145051490837    0.887069323320391  0.0000
  O1     O1        0.083021784245114    0.805356816853167    0.898316193070617  0.0000
  O1     O1        0.379252622476660    0.932485618694850    0.892518746309024  0.0000
  O1     O1        0.134613418246495    0.148349990344653    0.881756471652427  0.0000
  O3     O3        0.589336666811454    0.814206549471858    0.119972716074430  0.0000
  O1     O1        0.920983282539559    0.279104647949029    0.143339045291869  0.0000
  O1     O1        0.483580336420699    0.068967674859713    0.071646136946665  0.0000
  O1     O1        0.981938194271939    0.070760210133371    0.953588260938250  0.0000
  O1     O1        0.161804335535539    0.485271586040304    0.360375942465072  0.0000
  O1     O1        0.345033840688498    0.567797927251246    0.360060773320011  0.0000
  O3     O3        0.843625243249639    0.584967125943664    0.679412005872391  0.0000
  O1     O1        0.652576289332361    0.502596625597037    0.673514061043074  0.0000
  O1     O1        0.273410771720697    0.253523125300533    0.298272451994845  0.0000
  O1     O1        0.233810548694107    0.802057757060879    0.301955266126547  0.0000
  O1     O1        0.766373327284305    0.275827238155874    0.737210426901626  0.0000
  O3     O3        0.739187003998091    0.806265624143603    0.729220677033861  0.0000
  O1     O1        0.144539596642302    0.273721105363803    0.138644019031037  0.0000
  O1     O1        0.362999867025082    0.796688486140367    0.145576416466954  0.0000
  O1     O1        0.888484991229837    0.393598643279679    0.893740038424816  0.0000
  O3     O3        0.623378177894712    0.683590329603702    0.893803140891736  0.0000
  O3     O3        0.858669856633103    0.789363088560711    0.881829442610433  0.0000
  O1     O1        0.638976673714753    0.287402309458071    0.897882145160000  0.0000
  O1     O1        0.117940756791981    0.671473923193319    0.143764392941493  0.0000
  O1     O1        0.388853872039099    0.402160170931605    0.138816680417146  0.0000
  O3     O3        0.661682885439786    0.523552549697128    0.104216495963432  0.0000
  O1     O1        0.848370371589359    0.593917173435014    0.109226058206119  0.0000
  O1     O1        0.344503859381548    0.587915487290092    0.922192917027296  0.0000
  O1     O1        0.162605459492313    0.498778008034307    0.924257589838067  0.0000
  O1     O1        0.770227917333490    0.283574094297934    0.052229482514281  0.0000
  O3     O3        0.730589266398038    0.817580049038104    0.044847723157204  0.0000
  O1     O1        0.274444719943262    0.267439445685632    0.983629948007733  0.0000
  O1     O1        0.233713741538545    0.816642956927070    0.986807643643951  0.0000
