data_c00109.vasp
_audit_creation_method             Generated by GULP
_audit_author_name                 Salvador R. G. Balestra
_symmetry_space_group_name_H-M     'P 1             '
_symmetry_Int_Tables_number        1

loop_
_symmetry_equiv_pos_site_id
_symmetry_equiv_pos_as_xyz
_cell_length_a                       17.5923
_cell_length_b                        7.8441
_cell_length_c                       10.3161
_cell_angle_alpha                   91.0536
_cell_angle_beta                    90.1813
_cell_angle_gamma                   88.3991

loop_
_atom_site_label
_atom_site_type_symbol
_atom_site_fract_x
_atom_site_fract_y
_atom_site_fract_z
_atom_site_charge
  Ge     Ge        0.052090000000021    0.000000000000000    0.372269999999958  0.0000
  Ge     Ge        0.447115408608060    0.949491957987990    0.330163698126174  0.0000
  Ge     Ge        0.947721501369367    0.935413196282222    0.623482782318390  0.0000
  Ge     Ge        0.549917066100310    0.994519971200794    0.584280094896188  0.0000
  Ge     Ge        0.544084608753014    0.009984755891821    0.069739548680052  0.0000
  Ge     Ge        0.945553389932692    0.943373264437997    0.120685334094145  0.0000
  Ge     Ge        0.435878214791722    0.946710453551454    0.820813383964032  0.0000
  Ge     Ge        0.142769667071128    0.311151001430726    0.255078081295852  0.0000
  Ge     Ge        0.353544698073188    0.632922528073687    0.251172806074830  0.0000
  Ge     Ge        0.822802386086670    0.221702470310812    0.693901316250685  0.0000
  Ge     Ge        0.667931080792685    0.696595565449631    0.690888753287711  0.0000
  Ge     Ge        0.849545802607151    0.620037329231229    0.685595177121093  0.0000
  Ge     Ge        0.171690332781136    0.711770778500077    0.256323730565180  0.0000
  Ge     Ge        0.323268229212289    0.229481336110323    0.249621303792418  0.0000
  Ge     Ge        0.645041736035947    0.319549215931121    0.010225177866609  0.0000
  Ge     Ge        0.850187819119143    0.632475006860986    0.002416244712519  0.0000
  Ge     Ge        0.162887971058640    0.705284155511337    0.944003784346738  0.0000
  Ge     Ge        0.346668468217703    0.632029028796917    0.940165329027412  0.0000
  Ge     Ge        0.142581550765197    0.306161641150815    0.940469088151294  0.0000
  Ge     Ge        0.670010520393851    0.721827238397368    0.004769032377006  0.0000
  Ge     Ge        0.823545039625501    0.229506056872345    0.010175845969097  0.0000
  Si     Si        0.046983402289887    0.996634192296383    0.874674154302903  0.0000
  Si     Si        0.645810006025593    0.302149939130827    0.699960703433879  0.0000
  Si     Si        0.321556401408973    0.234417227470067    0.942408610646015  0.0000
  O1     O1        0.076564518530811    0.205491627424306    0.341855538612911  0.0000
  O1     O1        0.415662427705996    0.745634303423657    0.346242583112211  0.0000
  O1     O1        0.870096963677028    0.070763927019862    0.602221019371086  0.0000
  O1     O1        0.617088326435987    0.833808046117556    0.595023114824359  0.0000
  O1     O1        0.915744572986104    0.732259436512040    0.602620503487627  0.0000
  O3     O3        0.583069943593948    0.193519419432686    0.625458429350713  0.0000
  O1     O1        0.129444169041937    0.865388469396339    0.352646464317559  0.0000
  O1     O1        0.371072580377924    0.091411539126794    0.347486751215048  0.0000
  O1     O1        0.022893643502813    0.983802676063623    0.530701298814904  0.0000
  O1     O1        0.523405565718755    0.997761924546550    0.422696986087930  0.0000
  O1     O1        0.976089062840838    0.942414537291403    0.278359409355937  0.0000
  O1     O1        0.470750951978567    0.970988095690512    0.168343816525223  0.0000
  O3     O3        0.975203541125800    0.961312116890992    0.785623773340450  0.0000
  O1     O1        0.466368917375621    0.956860224974879    0.663091539411230  0.0000
  O1     O1        0.576341400672562    0.214537664760575    0.089911632987259  0.0000
  O1     O1        0.918513886868960    0.739543686602163    0.085313845195235  0.0000
  O3     O3        0.362205493261135    0.092717175612095    0.851401559772440  0.0000
  O3     O3        0.112765134522515    0.851916316244878    0.852539819831633  0.0000
  O1     O1        0.405471781990856    0.742642471801920    0.843121253258475  0.0000
  O3     O3        0.082738274280711    0.180156730578673    0.849427380551310  0.0000
  O1     O1        0.619781368117698    0.868867374985046    0.094955733505281  0.0000
  O1     O1        0.870745784323988    0.086301615566515    0.105760946498710  0.0000
  O1     O1        0.514900815894729    0.988814654150431    0.910831493190573  0.0000
  O3     O3        0.021073290358436    0.999262162519466    0.024894892044759  0.0000
  O1     O1        0.156536084902511    0.511885753738792    0.317180935628658  0.0000
  O1     O1        0.341284182686344    0.433196340500495    0.306698799349759  0.0000
  O1     O1        0.840770069972689    0.416613163313495    0.627404294759348  0.0000
  O3     O3        0.655933418930022    0.486398017094380    0.637505427135605  0.0000
  O1     O1        0.227833623092645    0.196259644841732    0.256235250514096  0.0000
  O1     O1        0.267177387025870    0.743107476496737    0.247963506158485  0.0000
  O3     O3        0.725320132371879    0.194072351936541    0.694508923277026  0.0000
  O1     O1        0.763548525658572    0.731068855089493    0.681908086906355  0.0000
  O1     O1        0.112172567687248    0.329901227136322    0.097661620696829  0.0000
  O1     O1        0.384956490603007    0.628003076434526    0.092933780764815  0.0000
  O1     O1        0.853417125044667    0.210265193002643    0.852013454853942  0.0000
  O1     O1        0.637574081556880    0.729888336349476    0.846842735946506  0.0000
  O1     O1        0.877822270801303    0.603559296179375    0.844452588917620  0.0000
  O3     O3        0.620966809567427    0.337702626676719    0.847329977107591  0.0000
  O1     O1        0.133340046104955    0.720395956261779    0.102574422517028  0.0000
  O3     O3        0.353610605202918    0.220242755704992    0.088547751346502  0.0000
  O1     O1        0.655832157854137    0.521866618609029    0.067793250207393  0.0000
  O1     O1        0.837645814944927    0.435298072670975    0.065920177596538  0.0000
  O3     O3        0.336074228476666    0.422310991147265    0.887915589229507  0.0000
  O1     O1        0.145946161341346    0.505450533471215    0.878370629525171  0.0000
  O1     O1        0.727632402348405    0.197825259907568    0.017870221115811  0.0000
  O1     O1        0.766153265913399    0.751961273435859    0.005897619405787  0.0000
  O3     O3        0.231612308586099    0.205878726733710    0.945571462621297  0.0000
  O1     O1        0.258843206447396    0.734040643465431    0.940787438526376  0.0000
