data_c00126.vasp
_audit_creation_method             Generated by GULP
_audit_author_name                 Salvador R. G. Balestra
_symmetry_space_group_name_H-M     'P 1             '
_symmetry_Int_Tables_number        1

loop_
_symmetry_equiv_pos_site_id
_symmetry_equiv_pos_as_xyz
_cell_length_a                       17.6640
_cell_length_b                        7.8248
_cell_length_c                       10.2312
_cell_angle_alpha                   89.9112
_cell_angle_beta                    90.3039
_cell_angle_gamma                   91.1105

loop_
_atom_site_label
_atom_site_type_symbol
_atom_site_fract_x
_atom_site_fract_y
_atom_site_fract_z
_atom_site_charge
  Ge     Ge        0.052090000000021    0.000000000000000    0.372269999999958  0.0000
  Ge     Ge        0.442832942649067    0.049416360543137    0.326874422180258  0.0000
  Ge     Ge        0.945144587398478    0.048697153091550    0.621410312525583  0.0000
  Ge     Ge        0.550346553518315    0.998667017936339    0.574824893790543  0.0000
  Ge     Ge        0.540274091673508    0.986315064941700    0.066828381239843  0.0000
  Ge     Ge        0.939529987015498    0.048949374975662    0.126872852123170  0.0000
  Ge     Ge        0.435145059942782    0.044847321640173    0.812172599133751  0.0000
  Ge     Ge        0.166271375249658    0.295752736242204    0.261953437221137  0.0000
  Ge     Ge        0.319747839456126    0.768774070214331    0.248675952927020  0.0000
  Ge     Ge        0.848337700676502    0.367343994290040    0.685975703747982  0.0000
  Ge     Ge        0.820255540917910    0.767855552320960    0.692920367320581  0.0000
  Ge     Ge        0.667032550872217    0.294126591862774    0.684554089242082  0.0000
  Ge     Ge        0.347446880777736    0.366670964628574    0.256350646138052  0.0000
  Ge     Ge        0.665776795431292    0.271375979326778    0.999590140924311  0.0000
  Ge     Ge        0.818429627414877    0.763870268190418    0.011580322938424  0.0000
  Ge     Ge        0.339407187353048    0.352002381080483    0.938962768257178  0.0000
  Ge     Ge        0.136717966888638    0.680271913054533    0.939966910404176  0.0000
  Ge     Ge        0.315520934980620    0.759490026892097    0.931190114018783  0.0000
  Ge     Ge        0.158149109595015    0.275216258571667    0.947733127328051  0.0000
  Ge     Ge        0.641297552413899    0.675620368920722    0.007369441339056  0.0000
  Ge     Ge        0.845033928330739    0.358091067611534    0.004018120665323  0.0000
  Si     Si        0.039888319037722    0.988271225359621    0.878205464966129  0.0000
  Si     Si        0.643950122148458    0.689830248504436    0.694517915778067  0.0000
  Si     Si        0.143383174784032    0.691061871672913    0.250694008557081  0.0000
  O1     O1        0.120802449456775    0.156346973391423    0.364938801578506  0.0000
  O1     O1        0.365436390922567    0.913679085776942    0.345896915728159  0.0000
  O1     O1        0.913736970191851    0.252992103135756    0.600325745547583  0.0000
  O3     O3        0.581835350856697    0.798434151243797    0.617688337465855  0.0000
  O1     O1        0.867396097418484    0.915123256108845    0.599971429597658  0.0000
  O1     O1        0.618869652454875    0.155119993822216    0.584034812544077  0.0000
  O3     O3        0.083600324747332    0.799532500359935    0.331045150701941  0.0000
  O1     O1        0.411800067978721    0.254177407015612    0.347099339303005  0.0000
  O1     O1        0.021383621927679    0.994891481223180    0.532076788117262  0.0000
  O1     O1        0.520841077615947    0.994530438022662    0.413128861586501  0.0000
  O1     O1        0.972346452749480    0.047846331510165    0.284625999452667  0.0000
  O1     O1        0.465768223927906    0.029694851660188    0.162717680722207  0.0000
  O3     O3        0.969786267847754    0.027369934666944    0.786515777533789  0.0000
  O1     O1        0.468005967099212    0.045723586921917    0.654276758931189  0.0000
  O1     O1        0.614967416683571    0.128728680420508    0.090888555504886  0.0000
  O1     O1        0.865517341449421    0.905692664426252    0.110592376883602  0.0000
  O1     O1        0.403111877691586    0.245654115799761    0.846544172035465  0.0000
  O3     O3        0.070189637884512    0.797220299013984    0.855887071350942  0.0000
  O1     O1        0.362005405475435    0.899030038216207    0.830223986323281  0.0000
  O3     O3        0.107739739541267    0.126850949148382    0.856347354655206  0.0000
  O1     O1        0.572717728355759    0.781538713390276    0.088940391013129  0.0000
  O1     O1        0.910788174241953    0.252571710270847    0.094269799717887  0.0000
  O1     O1        0.512118261495741    0.996015363637891    0.905600946981145  0.0000
  O3     O3        0.014855260533029    0.995646103209794    0.029357417669069  0.0000
  O3     O3        0.155537586623690    0.505881337306257    0.314780507568052  0.0000
  O1     O1        0.339290280380984    0.570037851314837    0.312053357192993  0.0000
  O1     O1        0.839071686449505    0.570067652673310    0.627930188118361  0.0000
  O3     O3        0.654510774302130    0.503832125649925    0.631210608176046  0.0000
  O1     O1        0.261213181439130    0.258938479778670    0.260199684279322  0.0000
  O3     O3        0.222641526535106    0.797276013571938    0.247519213066030  0.0000
  O1     O1        0.762281185360734    0.258772269818342    0.681469263390961  0.0000
  O3     O3        0.723052450829177    0.796731000230118    0.691054549909036  0.0000
  O1     O1        0.129316413340010    0.265135008354617    0.108075206975316  0.0000
  O1     O1        0.349452297051674    0.781225882358716    0.088575614597698  0.0000
  O1     O1        0.876339707969047    0.382084517671474    0.846746959139130  0.0000
  O3     O3        0.618223602501603    0.656544128061914    0.842285816788012  0.0000
  O1     O1        0.849496809302366    0.781499201263960    0.853210916160328  0.0000
  O1     O1        0.633872108894270    0.261206627215920    0.839888443990490  0.0000
  O3     O3        0.113986037264233    0.657859900583666    0.104170592506521  0.0000
  O1     O1        0.374391946955837    0.373548906207437    0.094969707485207  0.0000
  O1     O1        0.651938808558610    0.473254518631829    0.063671265928566  0.0000
  O1     O1        0.830672062870485    0.557331265013752    0.066427205895738  0.0000
  O1     O1        0.326143533424776    0.552842998924959    0.877592299674552  0.0000
  O1     O1        0.142192074497312    0.476367023647728    0.882953823494814  0.0000
  O1     O1        0.761461627302678    0.239091875114442    0.001612255655751  0.0000
  O1     O1        0.722934403385736    0.798298822615408    0.016947333211968  0.0000
  O1     O1        0.253727771766253    0.241522448163044    0.942672967698394  0.0000
  O1     O1        0.220068009528815    0.794637010561359    0.929396832199918  0.0000
