data_c00187.vasp
_audit_creation_method             Generated by GULP
_audit_author_name                 Salvador R. G. Balestra
_symmetry_space_group_name_H-M     'P 1             '
_symmetry_Int_Tables_number        1

loop_
_symmetry_equiv_pos_site_id
_symmetry_equiv_pos_as_xyz
_cell_length_a                       17.8461
_cell_length_b                        7.8561
_cell_length_c                       10.3641
_cell_angle_alpha                   91.2135
_cell_angle_beta                    90.5663
_cell_angle_gamma                   90.9492

loop_
_atom_site_label
_atom_site_type_symbol
_atom_site_fract_x
_atom_site_fract_y
_atom_site_fract_z
_atom_site_charge
  Ge     Ge        0.052090000000021    0.000000000000000    0.372269999999958  0.0000
  Ge     Ge        0.451090010781194    0.046144137018080    0.349977379529878  0.0000
  Ge     Ge        0.945652257619101    0.007101542582859    0.622050348121361  0.0000
  Ge     Ge        0.552696562097206    0.036291674806732    0.090745821933037  0.0000
  Ge     Ge        0.944585157004912    0.022098333975013    0.122140475206587  0.0000
  Ge     Ge        0.446870244461637    0.039276508313382    0.835718531762706  0.0000
  Ge     Ge        0.051335739451934    0.004298074821620    0.877305866620214  0.0000
  Ge     Ge        0.173744770633619    0.286249859673859    0.257269702450898  0.0000
  Ge     Ge        0.330242711959816    0.761875572560987    0.268369280202642  0.0000
  Ge     Ge        0.827972565275019    0.290982992769993    0.698969773343204  0.0000
  Ge     Ge        0.660711152450864    0.728626548593764    0.699675173219258  0.0000
  Ge     Ge        0.840985095856191    0.695846110240157    0.687907174640830  0.0000
  Ge     Ge        0.151191601834693    0.691425020320803    0.265665330035193  0.0000
  Ge     Ge        0.352478023330846    0.353257913517430    0.263010409608584  0.0000
  Ge     Ge        0.653413141001669    0.352818188745971    0.020945112034114  0.0000
  Ge     Ge        0.354146713577123    0.354033345876159    0.948338443917943  0.0000
  Ge     Ge        0.148878656454578    0.690146077142302    0.951780204472875  0.0000
  Ge     Ge        0.328321013478935    0.762493133295382    0.955313714449260  0.0000
  Ge     Ge        0.174573862850811    0.287933311600398    0.942281176380045  0.0000
  Ge     Ge        0.671146106768022    0.756494503665722    0.012567349710385  0.0000
  Ge     Ge        0.831685405336564    0.309905019014038    0.010567191750428  0.0000
  Si     Si        0.552658650849341    0.020072502992313    0.597761343996590  0.0000
  Si     Si        0.650742555603987    0.329639820794299    0.713470054954964  0.0000
  Si     Si        0.846014454394302    0.713016957192351    0.996445245321992  0.0000
  O1     O1        0.122613438744309    0.144320655476752    0.344052888906725  0.0000
  O1     O1        0.380662271558172    0.897257497410928    0.369254038691964  0.0000
  O1     O1        0.875145211091212    0.152290353081958    0.602690901367082  0.0000
  O3     O3        0.604923223966092    0.857190853347802    0.607875603104335  0.0000
  O1     O1        0.903496463192301    0.810011397901040    0.599850478751295  0.0000
  O2     O2        0.594559474075040    0.195657426860513    0.641847902829003  0.0000
  O1     O1        0.086957875060549    0.799015454927841    0.356147831340777  0.0000
  O1     O1        0.414292728494963    0.245622634728771    0.357931598230677  0.0000
  O1     O1        0.022338341476508    0.032377296137662    0.528722484808241  0.0000
  O3     O3        0.528256087935733    0.031402270436263    0.449288657895988  0.0000
  O1     O1        0.972349158383988    0.021485056231083    0.280731098779005  0.0000
  O1     O1        0.482656009047908    0.004024249730072    0.195816674662634  0.0000
  O1     O1        0.975809591825317    0.031474200892544    0.780063094420351  0.0000
  O3     O3        0.476938333061281    0.003030368952663    0.679114722422987  0.0000
  O1     O1        0.588629331631912    0.240580010650062    0.105408262883959  0.0000
  O3     O3        0.905414663101912    0.826093567466919    0.077180709984697  0.0000
  O1     O1        0.418448782550439    0.245681575502650    0.858587798458168  0.0000
  O1     O1        0.086025809812919    0.802032661572930    0.862739711123603  0.0000
  O1     O1        0.370947181224966    0.906744230702452    0.858984425784332  0.0000
  O1     O1        0.124100351316053    0.145867292705665    0.848970943984222  0.0000
  O1     O1        0.627105829225540    0.900233656185029    0.108066680680985  0.0000
  O1     O1        0.884246165011163    0.188675720063298    0.109841441687931  0.0000
  O1     O1        0.518940689620943    0.992684931986649    0.937292389043913  0.0000
  O1     O1        0.023830977047355    0.047999588285163    0.033571658106405  0.0000
  O1     O1        0.162224924199301    0.489459772990953    0.320249570830381  0.0000
  O1     O1        0.341928524482536    0.556206584708312    0.319598123177210  0.0000
  O1     O1        0.839697869545806    0.489103512270502    0.635337980444744  0.0000
  O3     O3        0.650964805944795    0.514793831972292    0.650264501663773  0.0000
  O1     O1        0.267781109171866    0.243778702095096    0.262288975369752  0.0000
  O1     O1        0.235967847161666    0.800571804600683    0.271435485600732  0.0000
  O3     O3        0.732692747639298    0.248545350595110    0.708601267550841  0.0000
  O1     O1        0.753264936737548    0.782094360816124    0.678935206010639  0.0000
  O1     O1        0.144507434169910    0.282753339703877    0.099621132290391  0.0000
  O1     O1        0.360950497119571    0.777564297013706    0.111936194949954  0.0000
  O1     O1        0.861296972751996    0.280751412235683    0.855002554710052  0.0000
  O1     O1        0.635942108360308    0.753888687705096    0.857082626913470  0.0000
  O3     O3        0.870986326701535    0.698458818340001    0.848221228878418  0.0000
  O3     O3        0.624640437558619    0.353457077476574    0.859864411710716  0.0000
  O1     O1        0.118738724334128    0.682181876470665    0.108822058696362  0.0000
  O1     O1        0.384394128971051    0.354860031738992    0.106743155377926  0.0000
  O1     O1        0.658458453524645    0.557958821612844    0.076806085789107  0.0000
  O3     O3        0.839218043394083    0.525182319482240    0.053478177307046  0.0000
  O1     O1        0.344347068810773    0.558105703303209    0.897902719581223  0.0000
  O1     O1        0.159854540052252    0.490938172180506    0.887291416368818  0.0000
  O1     O1        0.738873275035254    0.256251115431641    0.026668585915703  0.0000
  O3     O3        0.765873715177121    0.804196445054341    0.002147316601383  0.0000
  O1     O1        0.268599221955234    0.249090641745837    0.938967209882463  0.0000
  O1     O1        0.233905191667204    0.797448682557954    0.956429940127340  0.0000
