data_c00117.vasp
_audit_creation_method             Generated by GULP
_audit_author_name                 Salvador R. G. Balestra
_symmetry_space_group_name_H-M     'P 1             '
_symmetry_Int_Tables_number        1

loop_
_symmetry_equiv_pos_site_id
_symmetry_equiv_pos_as_xyz
_cell_length_a                       17.6136
_cell_length_b                        7.8263
_cell_length_c                       10.3076
_cell_angle_alpha                   89.0725
_cell_angle_beta                    90.0759
_cell_angle_gamma                   88.8226

loop_
_atom_site_label
_atom_site_type_symbol
_atom_site_fract_x
_atom_site_fract_y
_atom_site_fract_z
_atom_site_charge
  Ge     Ge        0.052090000000021    0.000000000000000    0.372269999999958  0.0000
  Ge     Ge        0.448121090294537    0.949819694485194    0.326992711483492  0.0000
  Ge     Ge        0.947915864312140    0.959605593698757    0.629803955405356  0.0000
  Ge     Ge        0.551339482955251    0.012724550601681    0.578877589257183  0.0000
  Ge     Ge        0.547514502104686    0.017022291093941    0.069771512912933  0.0000
  Ge     Ge        0.947639240803465    0.953157821600941    0.119782756735837  0.0000
  Ge     Ge        0.439582170350068    0.966513239573925    0.820859536632596  0.0000
  Ge     Ge        0.144634899408932    0.316454904795120    0.250447607953214  0.0000
  Ge     Ge        0.351747101220849    0.637587070714295    0.253453638727138  0.0000
  Ge     Ge        0.826632916792831    0.251289959207723    0.693269094365984  0.0000
  Ge     Ge        0.673369668703849    0.726790492249689    0.690870105113907  0.0000
  Ge     Ge        0.644958000138522    0.327304939324467    0.691528397226354  0.0000
  Ge     Ge        0.172670169923347    0.718340311808213    0.260785512127965  0.0000
  Ge     Ge        0.324830700144362    0.231914503062193    0.247117741810078  0.0000
  Ge     Ge        0.647326642651127    0.331090412752476    0.009023717239136  0.0000
  Ge     Ge        0.852750390212266    0.645084287178499    0.002848256482692  0.0000
  Ge     Ge        0.324681298608515    0.260540993117151    0.933892551252134  0.0000
  Ge     Ge        0.166734136707777    0.734038521611150    0.946932180672344  0.0000
  Ge     Ge        0.143277405410007    0.335282815545760    0.934697233079570  0.0000
  Ge     Ge        0.674243829369443    0.733127496376599    0.006480474517303  0.0000
  Ge     Ge        0.826381107806049    0.240650408064855    0.007797982064060  0.0000
  Si     Si        0.049551181884502    0.024545775967739    0.876657864319293  0.0000
  Si     Si        0.850060555171756    0.645157579308911    0.693490816081225  0.0000
  Si     Si        0.345201723365662    0.659455892592737    0.945654022913325  0.0000
  O1     O1        0.077705753251371    0.205390689045794    0.334491522156989  0.0000
  O1     O1        0.417818996887174    0.743139834638588    0.342410219788549  0.0000
  O1     O1        0.878393422800540    0.112382202579397    0.600272766089620  0.0000
  O1     O1        0.630143793454548    0.883483813991507    0.599443268774029  0.0000
  O3     O3        0.910837096590346    0.756871910154113    0.615738756452014  0.0000
  O1     O1        0.576250849026527    0.218337204224499    0.611413383255167  0.0000
  O1     O1        0.128125852019488    0.862408987910089    0.358294935821699  0.0000
  O1     O1        0.372564746122546    0.090218575791179    0.346468198932928  0.0000
  O1     O1        0.023565139355246    0.988374785552210    0.531612136193783  0.0000
  O1     O1        0.524684934459907    0.996909250300077    0.418220564356483  0.0000
  O1     O1        0.976591567683825    0.942844131522179    0.278313271241603  0.0000
  O1     O1        0.472475537108710    0.973737808152508    0.165074528340954  0.0000
  O3     O3        0.978583745250611    0.978558411328024    0.789715535799917  0.0000
  O1     O1        0.472304393088647    0.951898478895331    0.663962781655792  0.0000
  O1     O1        0.581165041680835    0.219230585005328    0.094283324323585  0.0000
  O1     O1        0.923627601829836    0.749348596456122    0.078251794458319  0.0000
  O1     O1        0.372393455603912    0.127946619662853    0.830668559652290  0.0000
  O3     O3        0.119660410055574    0.890856425986859    0.857663240439960  0.0000
  O3     O3        0.403580533211253    0.768894458587856    0.862178102540345  0.0000
  O3     O3        0.079490920958349    0.214672184003609    0.848248430431427  0.0000
  O1     O1        0.622210976619545    0.873934608194879    0.095323393207681  0.0000
  O1     O1        0.871935898775706    0.092892795247581    0.105390584934387  0.0000
  O1     O1        0.518576616312019    0.009263096642523    0.909948460306507  0.0000
  O3     O3        0.023793429377613    0.019359890724781    0.027238403679111  0.0000
  O1     O1        0.159305119731682    0.512391796858210    0.317049889731229  0.0000
  O1     O1        0.340812227472020    0.433683427280500    0.307009138025981  0.0000
  O3     O3        0.839627002359725    0.459360835476996    0.634094478998043  0.0000
  O1     O1        0.653736061905719    0.530525702325910    0.628211934110146  0.0000
  O1     O1        0.228946583950984    0.199535502972319    0.247963785772756  0.0000
  O1     O1        0.268172064843086    0.754314750301702    0.260784715168120  0.0000
  O1     O1        0.730895050126438    0.217555920623222    0.684412282755817  0.0000
  O3     O3        0.770846813165589    0.752386630957332    0.692950482724187  0.0000
  O1     O1        0.115898723607348    0.354687708949761    0.093611868914004  0.0000
  O3     O3        0.377326702177934    0.631535919430999    0.090513771538305  0.0000
  O1     O1        0.857370081367238    0.222706407537609    0.850441894320490  0.0000
  O1     O1        0.642802501917545    0.744652929984092    0.848146501664946  0.0000
  O3     O3        0.876121669541853    0.615168734576155    0.841705479384070  0.0000
  O1     O1        0.618895362403153    0.354107625534371    0.849730235214718  0.0000
  O1     O1        0.137116019292025    0.740823659118977    0.105304589024148  0.0000
  O1     O1        0.357260907123956    0.223109600029058    0.088980164982339  0.0000
  O1     O1        0.661088326968836    0.529174306101506    0.069121555268241  0.0000
  O1     O1        0.841626704052324    0.443503479517549    0.065260769459905  0.0000
  O3     O3        0.335221602743008    0.473212909265977    0.885553078826590  0.0000
  O1     O1        0.148456917832836    0.540542324000344    0.876586586617925  0.0000
  O1     O1        0.730377920421832    0.210281939570229    0.008603047644681  0.0000
  O1     O1        0.770238375720573    0.766363017406522    0.013164164227816  0.0000
  O1     O1        0.229061424439721    0.227032501681844    0.930203237589345  0.0000
  O3     O3        0.264276512689855    0.760591667614337    0.948466951153338  0.0000
