data_c00188.vasp
_audit_creation_method             Generated by GULP
_audit_author_name                 Salvador R. G. Balestra
_symmetry_space_group_name_H-M     'P 1             '
_symmetry_Int_Tables_number        1

loop_
_symmetry_equiv_pos_site_id
_symmetry_equiv_pos_as_xyz
_cell_length_a                       17.7358
_cell_length_b                        7.8627
_cell_length_c                       10.2649
_cell_angle_alpha                   91.4151
_cell_angle_beta                    91.2149
_cell_angle_gamma                   90.6974

loop_
_atom_site_label
_atom_site_type_symbol
_atom_site_fract_x
_atom_site_fract_y
_atom_site_fract_z
_atom_site_charge
  Ge     Ge        0.052090000000021    0.000000000000000    0.372269999999958  0.0000
  Ge     Ge        0.454278278197907    0.050515267350539    0.379106837540671  0.0000
  Ge     Ge        0.938656190550759    0.971910217000494    0.610113301437478  0.0000
  Ge     Ge        0.550481612476114    0.015066431796994    0.105605295536819  0.0000
  Ge     Ge        0.948843180613604    0.005846796772019    0.111182816487406  0.0000
  Ge     Ge        0.437076072330238    0.017105309147368    0.859678388205751  0.0000
  Ge     Ge        0.051750574522600    0.987257828037924    0.862394643399389  0.0000
  Ge     Ge        0.172914552066485    0.282118218932807    0.299943636765455  0.0000
  Ge     Ge        0.331683438484981    0.763049383697871    0.294739872179260  0.0000
  Ge     Ge        0.820457151002071    0.253748247664962    0.733253784860258  0.0000
  Ge     Ge        0.657114639992236    0.703782243011659    0.724522639588962  0.0000
  Ge     Ge        0.838939725453836    0.667300349953016    0.718210396638121  0.0000
  Ge     Ge        0.152680850157011    0.687511110643895    0.301716583972929  0.0000
  Ge     Ge        0.352158406984102    0.354479262907478    0.299261075772072  0.0000
  Ge     Ge        0.848772609517576    0.684317129582441    0.032336480809003  0.0000
  Ge     Ge        0.352691330266143    0.342479249906773    0.982451550418176  0.0000
  Ge     Ge        0.140703983371623    0.670952972200586    0.985406874067477  0.0000
  Ge     Ge        0.322024689148080    0.746516356388078    0.978880085465565  0.0000
  Ge     Ge        0.171337238263368    0.269530170409170    0.982230509076723  0.0000
  Ge     Ge        0.668056267997244    0.726071331380072    0.047559520723369  0.0000
  Ge     Ge        0.824322455600046    0.273089536868616    0.044659764901797  0.0000
  Si     Si        0.548987043559997    0.004551968298776    0.634322460665661  0.0000
  Si     Si        0.650239040016143    0.315032880604337    0.737312671488508  0.0000
  Si     Si        0.654025400851440    0.338448582365119    0.047133367635776  0.0000
  O1     O1        0.121247220672093    0.154210334132973    0.398105740921894  0.0000
  O1     O1        0.384966990988309    0.897418975852862    0.393861684696024  0.0000
  O1     O1        0.867089236587363    0.111331598413115    0.638321279911108  0.0000
  O3     O3        0.601025166899633    0.840710513736346    0.638216510830711  0.0000
  O1     O1        0.901374503435842    0.769991147564106    0.621226029377192  0.0000
  O2     O2        0.588212092799904    0.167041022133857    0.711347534333579  0.0000
  O1     O1        0.091922604571263    0.804533273177578    0.394338730853449  0.0000
  O1     O1        0.415472242838138    0.247588858166428    0.394629952527632  0.0000
  O1     O1        0.970805677781787    0.013348075904513    0.457039076279661  0.0000
  O3     O3        0.531454526197544    0.038594841940825    0.483839852219226  0.0000
  O1     O1        0.025679509063322    0.026989194979368    0.211411842745038  0.0000
  O1     O1        0.485266803420983    0.020247183762331    0.222879459411384  0.0000
  O1     O1        0.019409025081039    0.997427758570105    0.704491377369435  0.0000
  O3     O3        0.468974414100139    0.982871727554055    0.702405556012058  0.0000
  O3     O3        0.587094283625977    0.218754987194449    0.087476384944413  0.0000
  O1     O1        0.914751987406283    0.800148305903470    0.119762046329013  0.0000
  O1     O1        0.415644754740278    0.225760169615451    0.893185240973962  0.0000
  O1     O1        0.073889371228898    0.780499443965100    0.900108072058628  0.0000
  O1     O1        0.358537387128276    0.891821819614727    0.875806256614940  0.0000
  O1     O1        0.129836161301562    0.115631008918146    0.883720388213530  0.0000
  O1     O1        0.622263339810806    0.877257862744013    0.136449397503292  0.0000
  O1     O1        0.876408068817013    0.144605373928873    0.142264788801262  0.0000
  O1     O1        0.507050768287390    0.947493792045006    0.962606615494524  0.0000
  O1     O1        0.979651647604768    0.054999870864897    0.958031600101930  0.0000
  O1     O1        0.164890973100833    0.488630761241625    0.359785716593769  0.0000
  O1     O1        0.341879174987775    0.559357351525050    0.351902428919725  0.0000
  O1     O1        0.858802550141710    0.454221597301031    0.722138079081794  0.0000
  O3     O3        0.620477133007396    0.497791553662852    0.696601410444329  0.0000
  O1     O1        0.267947697505468    0.241857078048483    0.301225478957302  0.0000
  O1     O1        0.236536576110135    0.801367057250622    0.297935283238757  0.0000
  O3     O3        0.727778502810801    0.264084469981122    0.671410161993973  0.0000
  O1     O1        0.747089156398096    0.699775403845572    0.667511895923991  0.0000
  O1     O1        0.141456730027057    0.263173469149830    0.140220026294416  0.0000
  O1     O1        0.358887634078822    0.773927693248067    0.134910429232718  0.0000
  O1     O1        0.822651491233239    0.183675878272838    0.889721864937549  0.0000
  O1     O1        0.658430715897031    0.769320858015299    0.884188704216434  0.0000
  O1     O1        0.850662468319477    0.751023581782945    0.873695466653019  0.0000
  O2     O2        0.673042231493580    0.337766968874539    0.891668983786395  0.0000
  O1     O1        0.115684935566280    0.664839238590860    0.145630540942254  0.0000
  O1     O1        0.383762038632514    0.355817434646690    0.141679679192784  0.0000
  O3     O3        0.629961993562792    0.528669521781524    0.083443823078445  0.0000
  O1     O1        0.865900861186933    0.471209384760827    0.038709026968737  0.0000
  O1     O1        0.341861536948721    0.542839203825597    0.923911235753022  0.0000
  O1     O1        0.149870406206102    0.467895122470466    0.923910046676783  0.0000
  O3     O3        0.734512586564706    0.288739411821706    0.109503714118618  0.0000
  O1     O1        0.760919773570055    0.724982975916627    0.092527499080302  0.0000
  O1     O1        0.266689369189677    0.239169432973181    0.979964631563584  0.0000
  O1     O1        0.226676903543696    0.774371995874504    0.981729004853242  0.0000
