data_c00185.vasp
_audit_creation_method             Generated by GULP
_audit_author_name                 Salvador R. G. Balestra
_symmetry_space_group_name_H-M     'P 1             '
_symmetry_Int_Tables_number        1

loop_
_symmetry_equiv_pos_site_id
_symmetry_equiv_pos_as_xyz
_cell_length_a                       17.6159
_cell_length_b                        7.8392
_cell_length_c                       10.1668
_cell_angle_alpha                   90.1077
_cell_angle_beta                    91.0264
_cell_angle_gamma                   91.6595

loop_
_atom_site_label
_atom_site_type_symbol
_atom_site_fract_x
_atom_site_fract_y
_atom_site_fract_z
_atom_site_charge
  Ge     Ge        0.052090000000021    0.000000000000000    0.372269999999958  0.0000
  Ge     Ge        0.449383083793172    0.063304461277361    0.385743653781288  0.0000
  Ge     Ge        0.941522082615347    0.041665832708704    0.615919722873266  0.0000
  Ge     Ge        0.547079107317181    0.999073575127147    0.125051009339053  0.0000
  Ge     Ge        0.952493208806818    0.061953948358092    0.112145652839864  0.0000
  Ge     Ge        0.443263298150231    0.060578702365835    0.863776375772843  0.0000
  Ge     Ge        0.056144872428298    0.000638829245263    0.861199102257900  0.0000
  Ge     Ge        0.173561132646411    0.284793633632769    0.294228422742191  0.0000
  Ge     Ge        0.327528122013942    0.778217368053373    0.301687575991535  0.0000
  Ge     Ge        0.844302387955100    0.354599210024084    0.732669478380028  0.0000
  Ge     Ge        0.638754276441858    0.682948109368933    0.740253605667344  0.0000
  Ge     Ge        0.822356856255173    0.753260591941373    0.727245475322592  0.0000
  Ge     Ge        0.148963139425819    0.689462659707503    0.299594804004168  0.0000
  Ge     Ge        0.353553599523695    0.373077301458602    0.299317922478445  0.0000
  Ge     Ge        0.672716965543104    0.289411917590465    0.058171804956228  0.0000
  Ge     Ge        0.826465027671330    0.773073916800788    0.044642793836811  0.0000
  Ge     Ge        0.354848888521530    0.377141774000211    0.980465196771424  0.0000
  Ge     Ge        0.324322607812402    0.778020659281266    0.982492807627858  0.0000
  Ge     Ge        0.172191933266040    0.297782822669320    0.977215022947747  0.0000
  Ge     Ge        0.646031725081439    0.690421714822534    0.056046996191891  0.0000
  Ge     Ge        0.850713227177134    0.371214961851251    0.057037120742315  0.0000
  Si     Si        0.551804702299600    0.000369829879543    0.629397806666293  0.0000
  Si     Si        0.665609247355571    0.289662671277358    0.742430121240128  0.0000
  Si     Si        0.146629084146860    0.693252503595030    0.987207710998037  0.0000
  O1     O1        0.125545979703787    0.147537451488129    0.395695450492737  0.0000
  O1     O1        0.377383524962429    0.913479980816238    0.405613928973170  0.0000
  O1     O1        0.910179076192453    0.241151213763412    0.651971704679325  0.0000
  O3     O3        0.576402675652163    0.807115993983643    0.650270240906576  0.0000
  O1     O1        0.866454497923264    0.900930701662674    0.629108726882365  0.0000
  O2     O2        0.618824696632440    0.134936337402211    0.671224606940111  0.0000
  O1     O1        0.084662941327174    0.796816206342763    0.390556843257135  0.0000
  O1     O1        0.415489284332448    0.264513179508853    0.399167978153664  0.0000
  O1     O1        0.972011716403689    0.040875928196471    0.455266993795743  0.0000
  O3     O3        0.530692184741207    0.026613488115653    0.476388288176528  0.0000
  O1     O1        0.029048247673690    0.017654430837104    0.206289085107677  0.0000
  O1     O1        0.473320963066627    0.040211434671741    0.222175516290235  0.0000
  O1     O1        0.022558024055446    0.988354409378678    0.701431513626050  0.0000
  O3     O3        0.474027421292273    0.040111317428670    0.703470795857458  0.0000
  O1     O1        0.619520811515820    0.150192430413530    0.146704287725171  0.0000
  O1     O1        0.877613103079254    0.919146883036269    0.135508502146997  0.0000
  O1     O1        0.419325109567710    0.268387634424269    0.891237437420124  0.0000
  O3     O3        0.085952027203999    0.799173503567405    0.904975322852571  0.0000
  O1     O1        0.363072163264318    0.933831277508737    0.886270045932214  0.0000
  O1     O1        0.127186534175770    0.154848880823759    0.873031949915822  0.0000
  O1     O1        0.585208812678882    0.801939153354194    0.150514687732969  0.0000
  O1     O1        0.919547005659006    0.263980672529114    0.139677068762755  0.0000
  O1     O1        0.516510966554444    0.000292553792373    0.963057844462196  0.0000
  O1     O1        0.978955593473655    0.054906862635734    0.949678913152734  0.0000
  O1     O1        0.161345409556759    0.488399153143586    0.355709944744876  0.0000
  O1     O1        0.339510535083635    0.572424870600765    0.358060031931357  0.0000
  O1     O1        0.838243078415786    0.553682209657160    0.665266816627191  0.0000
  O3     O3        0.645673082425769    0.473896862012425    0.681841825666251  0.0000
  O1     O1        0.269407080070769    0.253510585037100    0.292392393003116  0.0000
  O1     O1        0.231886297227376    0.811897383285840    0.304041312828536  0.0000
  O3     O3        0.754417742661883    0.255012899495398    0.728095662789172  0.0000
  O1     O1        0.726397716870891    0.780800674385670    0.731446456696641  0.0000
  O1     O1        0.139661766892916    0.268392760972633    0.133951723543176  0.0000
  O1     O1        0.358360883441272    0.795174520881376    0.141872982414992  0.0000
  O1     O1        0.872279057545140    0.383481241442959    0.892693302809323  0.0000
  O1     O1        0.608574804115338    0.673301376134884    0.898036563067883  0.0000
  O1     O1        0.858023223904172    0.778233792972022    0.884887343185252  0.0000
  O3     O3        0.642837637640275    0.290917755165740    0.894345096782153  0.0000
  O3     O3        0.119214777333553    0.669369573670358    0.136034509223893  0.0000
  O1     O1        0.386482365844166    0.389481708270962    0.141447089610063  0.0000
  O1     O1        0.660518075253459    0.493039910672265    0.118625054064294  0.0000
  O1     O1        0.840049606050359    0.573381073658447    0.112783228499782  0.0000
  O1     O1        0.345797417073572    0.580508301600874    0.921758924565804  0.0000
  O3     O3        0.156452029437131    0.506364437282994    0.925702247669461  0.0000
  O1     O1        0.767225258473542    0.250383153452022    0.067511459541884  0.0000
  O1     O1        0.730768360226468    0.805741517573372    0.043866424250020  0.0000
  O1     O1        0.268147327513540    0.270031516192749    0.976020366361514  0.0000
  O3     O3        0.226818687944304    0.798002689666306    0.987363599524284  0.0000
