data_c00123.vasp
_audit_creation_method             Generated by GULP
_audit_author_name                 Salvador R. G. Balestra
_symmetry_space_group_name_H-M     'P 1             '
_symmetry_Int_Tables_number        1

loop_
_symmetry_equiv_pos_site_id
_symmetry_equiv_pos_as_xyz
_cell_length_a                       17.8483
_cell_length_b                        7.8760
_cell_length_c                       10.3666
_cell_angle_alpha                   90.0903
_cell_angle_beta                    89.9384
_cell_angle_gamma                   89.8262

loop_
_atom_site_label
_atom_site_type_symbol
_atom_site_fract_x
_atom_site_fract_y
_atom_site_fract_z
_atom_site_charge
  Ge     Ge        0.052090000000021    0.000000000000000    0.372269999999958  0.0000
  Ge     Ge        0.443928080123929    0.030731473147979    0.370726031591913  0.0000
  Ge     Ge        0.947509028262244    0.989815295284161    0.628847486895322  0.0000
  Ge     Ge        0.551145059326576    0.024061711318166    0.619513538169958  0.0000
  Ge     Ge        0.552004392717543    0.025656873671663    0.122113666953791  0.0000
  Ge     Ge        0.943371779089070    0.991507579397983    0.124360796803767  0.0000
  Ge     Ge        0.445559496165065    0.012743243765369    0.873486204134988  0.0000
  Ge     Ge        0.164244473671499    0.296713563082152    0.263514344816770  0.0000
  Ge     Ge        0.326094526997009    0.743879677496516    0.251374109007185  0.0000
  Ge     Ge        0.831031200488209    0.283437823460918    0.694547788976322  0.0000
  Ge     Ge        0.671129974947899    0.740457539279079    0.693431910486241  0.0000
  Ge     Ge        0.651035231861825    0.338529809096796    0.687539787577643  0.0000
  Ge     Ge        0.344414512910933    0.339568997179614    0.263045978689593  0.0000
  Ge     Ge        0.646789392503624    0.337820728075120    0.002843894898721  0.0000
  Ge     Ge        0.849239069281559    0.678818351446105    0.007974841678789  0.0000
  Ge     Ge        0.341360588635722    0.325113746944269    0.947779377426245  0.0000
  Ge     Ge        0.145660248785774    0.690597596919820    0.946725110331415  0.0000
  Ge     Ge        0.325136171246540    0.730827083500038    0.937418874008939  0.0000
  Ge     Ge        0.160456567914833    0.283723034512670    0.951246097968985  0.0000
  Ge     Ge        0.671165187853939    0.743500025724120    0.006805272619398  0.0000
  Ge     Ge        0.825843042295061    0.272606528267205    0.006919436324580  0.0000
  Si     Si        0.046978055240889    0.002558752083885    0.880437588712556  0.0000
  Si     Si        0.847154219271133    0.681585072424151    0.700718368553538  0.0000
  Si     Si        0.150465027880099    0.695926490886277    0.253479979476237  0.0000
  O1     O1        0.112229929592805    0.168336251292510    0.361130086528864  0.0000
  O1     O1        0.372060326434821    0.892850913837947    0.339406099206655  0.0000
  O1     O1        0.884237017940440    0.151047827776670    0.600370357870704  0.0000
  O1     O1        0.623059969671408    0.879730880252795    0.598632201589073  0.0000
  O3     O3        0.903362758136266    0.794681655825099    0.616889109769097  0.0000
  O1     O1        0.589039962169822    0.221940264093950    0.597891465684268  0.0000
  O3     O3        0.094143058412194    0.807732374398399    0.337415114714712  0.0000
  O1     O1        0.408718067235686    0.232082024051896    0.353867147658098  0.0000
  O1     O1        0.023117215023535    0.994451832081414    0.530322871452219  0.0000
  O1     O1        0.473734230040710    0.996109114890740    0.526425607260595  0.0000
  O1     O1        0.973099838932919    0.019352472648401    0.279862628167136  0.0000
  O1     O1        0.523074057732581    0.005013580334452    0.279253097907994  0.0000
  O3     O3        0.977548989465618    0.022285681549635    0.786319260983178  0.0000
  O1     O1        0.522210346313179    0.998737601624064    0.777410931365939  0.0000
  O1     O1        0.581145257626213    0.229232638629569    0.089500319730494  0.0000
  O1     O1        0.914712061760080    0.786881420410126    0.094721351972044  0.0000
  O1     O1        0.402344538643897    0.207241991851603    0.857670064253474  0.0000
  O3     O3        0.081792066498056    0.814259575057333    0.864910395885411  0.0000
  O1     O1        0.378567108266520    0.860192189444675    0.843640686680535  0.0000
  O3     O3        0.111203981898773    0.142536579677438    0.856384629095700  0.0000
  O1     O1        0.624845160007184    0.886561227607701    0.100961012200885  0.0000
  O1     O1        0.869935124196931    0.128829834222672    0.103154645660465  0.0000
  O1     O1        0.475365841900363    0.980408891104468    0.029464095706155  0.0000
  O3     O3        0.019079047388113    0.036047993244879    0.026267901138239  0.0000
  O3     O3        0.158227225150606    0.508367895241150    0.312000666567884  0.0000
  O1     O1        0.340789059766095    0.545672872036502    0.315435558641229  0.0000
  O3     O3        0.839989894510378    0.493305246121760    0.643329629324352  0.0000
  O1     O1        0.656828808047317    0.540989361568414    0.630621680635822  0.0000
  O1     O1        0.257512685286062    0.245826449380248    0.271788425204155  0.0000
  O3     O3        0.230890732659133    0.787922543896470    0.250412700006633  0.0000
  O1     O1        0.737170092406404    0.238794665239793    0.684956983620338  0.0000
  O3     O3        0.766708652135403    0.776332910126195    0.700106281655145  0.0000
  O1     O1        0.131561002093092    0.276655238507465    0.109312684740632  0.0000
  O1     O1        0.355974954006826    0.743308343039263    0.094649173360843  0.0000
  O1     O1        0.858952452271796    0.260195341565224    0.851733585552138  0.0000
  O1     O1        0.639926547303987    0.754172259775037    0.850196271866283  0.0000
  O3     O3        0.876245310969283    0.667718782045502    0.847152771041056  0.0000
  O1     O1        0.619180525906240    0.347248918920563    0.844280975961063  0.0000
  O3     O3        0.119907708340297    0.681999877749209    0.107900295211899  0.0000
  O1     O1        0.373034083669867    0.332702308650913    0.104402963293143  0.0000
  O1     O1        0.656295890412032    0.539683509416082    0.061836626180025  0.0000
  O1     O1        0.840244710838114    0.476094157722567    0.064013814652979  0.0000
  O1     O1        0.333912556409224    0.524611600317772    0.884919091927775  0.0000
  O1     O1        0.147718930682106    0.486268175752339    0.891148596449827  0.0000
  O1     O1        0.731417708565634    0.233143423110577    0.007319400168604  0.0000
  O1     O1        0.765228286239843    0.784817077011006    0.015180161393309  0.0000
  O1     O1        0.253850410655036    0.233295323017001    0.948977401833504  0.0000
  O1     O1        0.231900085130637    0.783507790906249    0.931984171058681  0.0000
