data_c00110.vasp
_audit_creation_method             Generated by GULP
_audit_author_name                 Salvador R. G. Balestra
_symmetry_space_group_name_H-M     'P 1             '
_symmetry_Int_Tables_number        1

loop_
_symmetry_equiv_pos_site_id
_symmetry_equiv_pos_as_xyz
_cell_length_a                       17.6478
_cell_length_b                        7.8230
_cell_length_c                       10.3037
_cell_angle_alpha                   91.2069
_cell_angle_beta                    90.6780
_cell_angle_gamma                   88.8959

loop_
_atom_site_label
_atom_site_type_symbol
_atom_site_fract_x
_atom_site_fract_y
_atom_site_fract_z
_atom_site_charge
  Ge     Ge        0.052090000000021    0.000000000000000    0.372269999999958  0.0000
  Ge     Ge        0.449722020447654    0.954267662895670    0.329519507289262  0.0000
  Ge     Ge        0.948557943230715    0.939717673807535    0.624706091926456  0.0000
  Ge     Ge        0.553589692650155    0.993852202717393    0.583592417647215  0.0000
  Ge     Ge        0.547395695770830    0.018172620036177    0.070595600303935  0.0000
  Ge     Ge        0.943579717132475    0.954531455318285    0.121404769655995  0.0000
  Ge     Ge        0.439841594833359    0.948263358414084    0.818741975761275  0.0000
  Ge     Ge        0.144162753467570    0.313804874648179    0.256689938975365  0.0000
  Ge     Ge        0.353228428947307    0.636133817369625    0.256695379902971  0.0000
  Ge     Ge        0.824824793103808    0.223266801620703    0.699791554585383  0.0000
  Ge     Ge        0.670217922757431    0.698659618050259    0.688792385006892  0.0000
  Ge     Ge        0.850490813978843    0.625554006546756    0.689575904191985  0.0000
  Ge     Ge        0.173132463208761    0.715541793295634    0.261831913360429  0.0000
  Ge     Ge        0.324449637917347    0.231753305688924    0.252221295785030  0.0000
  Ge     Ge        0.648626999235759    0.329766053410900    0.017387350068045  0.0000
  Ge     Ge        0.320565720426851    0.234652380440748    0.937837314010957  0.0000
  Ge     Ge        0.165209091952755    0.719371689737834    0.947383030019358  0.0000
  Ge     Ge        0.346368566333955    0.640756717565298    0.941429703672343  0.0000
  Ge     Ge        0.140430413377455    0.317269780359512    0.942223034814306  0.0000
  Ge     Ge        0.671546361796526    0.729736508481626    0.001749648406481  0.0000
  Ge     Ge        0.826830685478827    0.249180531448719    0.015414356657645  0.0000
  Si     Si        0.046370635253916    0.004230663195479    0.878204881371879  0.0000
  Si     Si        0.648969276311603    0.303598783299754    0.704752261338878  0.0000
  Si     Si        0.848028227316778    0.648022389593074    0.998419622370229  0.0000
  O1     O1        0.077702425768638    0.205097429173147    0.340314697316364  0.0000
  O1     O1        0.418357237085780    0.749483301213188    0.346847353959732  0.0000
  O1     O1        0.870814836270500    0.073898337661183    0.605985734362595  0.0000
  O1     O1        0.620734998332172    0.833997504673620    0.589575308652075  0.0000
  O1     O1        0.917228581034607    0.734130008598629    0.606421627509680  0.0000
  O3     O3        0.584908506643056    0.192717824253244    0.633991522691119  0.0000
  O1     O1        0.129036793154622    0.865309227428215    0.358676724178370  0.0000
  O1     O1        0.373776610031618    0.093632438891696    0.348761050672489  0.0000
  O1     O1        0.022271926463306    0.989598696493528    0.530813686985744  0.0000
  O1     O1        0.526190089752097    0.005837344629989    0.422399168369904  0.0000
  O1     O1        0.976226330357688    0.938081897282499    0.277944031462394  0.0000
  O1     O1        0.475086568598860    0.970634438263697    0.167974110414470  0.0000
  O3     O3        0.975682824942097    0.963948692076947    0.787323032276716  0.0000
  O1     O1        0.471521691356969    0.946444754416565    0.661577232870679  0.0000
  O1     O1        0.579527106484096    0.223623151608679    0.094652355871721  0.0000
  O3     O3        0.908500839130399    0.755977103123151    0.079855529213610  0.0000
  O1     O1        0.364661661631626    0.088681266133259    0.837675146859236  0.0000
  O3     O3        0.114510125559967    0.866117081675294    0.856899846316268  0.0000
  O1     O1        0.411118072963358    0.745500882565196    0.852548616931271  0.0000
  O3     O3        0.076642318235546    0.193932980787592    0.854082396103503  0.0000
  O1     O1        0.625201674347250    0.882868601077410    0.090571443421198  0.0000
  O1     O1        0.877518502141931    0.117787319181791    0.115782043358971  0.0000
  O1     O1        0.516572117248966    0.005318454587070    0.911734896177268  0.0000
  O3     O3        0.021193514796056    0.998523132278481    0.028393363764109  0.0000
  O1     O1        0.158996628455467    0.514174050987650    0.321527546156962  0.0000
  O1     O1        0.340573110122586    0.436121491868355    0.312913842788465  0.0000
  O1     O1        0.843522396426665    0.419579781417318    0.635523612621029  0.0000
  O3     O3        0.658296043663379    0.486316289014761    0.638548907888371  0.0000
  O1     O1        0.228641645948634    0.198590777965925    0.254880498267759  0.0000
  O1     O1        0.268442941984656    0.750203954894442    0.257708926500567  0.0000
  O3     O3        0.727604726580450    0.194762014464823    0.698330580824864  0.0000
  O1     O1        0.765353497085145    0.735032830028927    0.678985091045197  0.0000
  O1     O1        0.112656187382184    0.342913685193182    0.100589312085619  0.0000
  O1     O1        0.380663155091846    0.621767971113531    0.097101437482200  0.0000
  O1     O1        0.855094375110420    0.211200596464870    0.858788406555400  0.0000
  O1     O1        0.638722044156547    0.737839893903669    0.843611193002021  0.0000
  O3     O3        0.876246998562026    0.615914529889015    0.852560622267714  0.0000
  O3     O3        0.627860611129368    0.346104009201294    0.852584577959033  0.0000
  O1     O1        0.136999091726800    0.729125032740060    0.106310520810810  0.0000
  O1     O1        0.355513779373014    0.216635721998417    0.093888774124758  0.0000
  O1     O1        0.654328111622366    0.536089789874344    0.071727256672270  0.0000
  O3     O3        0.836903487331105    0.463870885276427    0.060481640333278  0.0000
  O1     O1        0.333276249999438    0.437659718550284    0.881074437540717  0.0000
  O1     O1        0.149068572451772    0.517219002500243    0.881662577340949  0.0000
  O1     O1        0.731929675576685    0.213996932535884    0.031041871381531  0.0000
  O3     O3        0.768807620630753    0.755356330152206    0.996517151268246  0.0000
  O1     O1        0.224891685430607    0.204020964785602    0.942487276368294  0.0000
  O1     O1        0.260939373808846    0.752629531380565    0.941892269203832  0.0000
