data_c00155.vasp
_audit_creation_method             Generated by GULP
_audit_author_name                 Salvador R. G. Balestra
_symmetry_space_group_name_H-M     'P 1             '
_symmetry_Int_Tables_number        1

loop_
_symmetry_equiv_pos_site_id
_symmetry_equiv_pos_as_xyz
_cell_length_a                       17.5650
_cell_length_b                        7.8795
_cell_length_c                       10.2829
_cell_angle_alpha                   90.1723
_cell_angle_beta                    90.5592
_cell_angle_gamma                   87.9320

loop_
_atom_site_label
_atom_site_type_symbol
_atom_site_fract_x
_atom_site_fract_y
_atom_site_fract_z
_atom_site_charge
  Ge     Ge        0.052090000000021    0.000000000000000    0.372269999999958  0.0000
  Ge     Ge        0.451890292291778    0.940590592657906    0.407093420161313  0.0000
  Ge     Ge        0.946877890930055    0.939903968851346    0.621327039492045  0.0000
  Ge     Ge        0.555924911149564    0.995929100898789    0.156960793110411  0.0000
  Ge     Ge        0.948706155115056    0.940208466745246    0.116733647422774  0.0000
  Ge     Ge        0.447721488800746    0.939243251475953    0.905456655403186  0.0000
  Ge     Ge        0.055180141992697    0.994229518006873    0.869304034404209  0.0000
  Ge     Ge        0.147110834476035    0.312330560648310    0.299317905851384  0.0000
  Ge     Ge        0.356809433562178    0.631905964529839    0.292950055702035  0.0000
  Ge     Ge        0.825629384748380    0.232685146366282    0.735603487998571  0.0000
  Ge     Ge        0.668142421017390    0.706671188547247    0.732135603880850  0.0000
  Ge     Ge        0.850639435078942    0.632611721472944    0.733321707539839  0.0000
  Ge     Ge        0.641947898928305    0.306751644227421    0.731818360520073  0.0000
  Ge     Ge        0.175570783270607    0.712482696445508    0.297116565304567  0.0000
  Ge     Ge        0.329347057183327    0.230915606809441    0.292158868886377  0.0000
  Ge     Ge        0.643171168573240    0.314645276844483    0.043975527397385  0.0000
  Ge     Ge        0.849249191715352    0.629592317391087    0.050478103962114  0.0000
  Ge     Ge        0.326718866461542    0.231990238868165    0.977585792013763  0.0000
  Ge     Ge        0.350031774774096    0.629092314748555    0.976584444256574  0.0000
  Ge     Ge        0.143712714742310    0.312949652926571    0.986385917458099  0.0000
  Ge     Ge        0.826075454279856    0.233206487204038    0.049930542065155  0.0000
  Si     Si        0.550238709840988    0.995290658031769    0.659990068676228  0.0000
  Si     Si        0.171192080684094    0.706519406166948    0.988280620070842  0.0000
  Si     Si        0.670630183639466    0.706474469082045    0.041346659483039  0.0000
  O1     O1        0.085931882787384    0.199979441491447    0.392910566721557  0.0000
  O1     O1        0.424157375624085    0.737259395666420    0.379715569378940  0.0000
  O1     O1        0.871744561456157    0.080367892518821    0.644982548571706  0.0000
  O3     O3        0.618386715607589    0.855470636551345    0.639322350212762  0.0000
  O1     O1        0.917389724268663    0.738169908442698    0.648145543156901  0.0000
  O3     O3        0.581216972417657    0.182790726287806    0.640393735116784  0.0000
  O1     O1        0.126584149697165    0.853908031069823    0.392914701109832  0.0000
  O1     O1        0.376018925677547    0.079589122223631    0.383909456803658  0.0000
  O1     O1        0.974240254482359    0.958573353660349    0.461357969725952  0.0000
  O3     O3        0.478690525866040    0.959877422836896    0.569609883814548  0.0000
  O1     O1        0.025754173424755    0.978513256331986    0.210186040385812  0.0000
  O1     O1        0.529823588451329    0.984831673244514    0.316666526353433  0.0000
  O1     O1        0.027777587838104    0.982729789003901    0.708858345624207  0.0000
  O3     O3        0.524612910404575    0.975628259333925    0.810044803422135  0.0000
  O1     O1        0.581701263861058    0.202496587191299    0.134384241075853  0.0000
  O1     O1        0.910700076847967    0.744494083596676    0.141337403544501  0.0000
  O1     O1        0.374530651903404    0.087377950214585    0.882700095598259  0.0000
  O3     O3        0.129824919286366    0.850546648133836    0.901386005078758  0.0000
  O1     O1        0.409416442971839    0.743561625920550    0.883159810850887  0.0000
  O1     O1        0.081303473629021    0.200374427039350    0.895034346064721  0.0000
  O3     O3        0.630792574200087    0.852916679244243    0.126644383027980  0.0000
  O1     O1        0.875267108543620    0.087603090774128    0.142190015313271  0.0000
  O1     O1        0.478038551708149    0.948705657808554    0.065083670431598  0.0000
  O1     O1        0.976317150074819    0.947617765166514    0.956204059300603  0.0000
  O1     O1        0.159793092048877    0.511866267586358    0.356942675534955  0.0000
  O1     O1        0.345273203579243    0.431590062832645    0.352077400126491  0.0000
  O1     O1        0.840324080642638    0.431469203884754    0.673148353766185  0.0000
  O1     O1        0.649964625925106    0.507048988093364    0.671304477118523  0.0000
  O1     O1        0.233265431314631    0.200554942504645    0.292823849129694  0.0000
  O1     O1        0.270990276732707    0.745733714192444    0.301327841339970  0.0000
  O1     O1        0.729488132705146    0.202418266697979    0.736726433263942  0.0000
  O1     O1        0.763344486145534    0.740721853280433    0.723583161558725  0.0000
  O1     O1        0.111428649514864    0.321815849941899    0.142695282450815  0.0000
  O1     O1        0.384316206301807    0.615914629031991    0.133594944584857  0.0000
  O1     O1        0.859301170752292    0.222633635033500    0.892717291787832  0.0000
  O3     O3        0.639312183874866    0.711747990553047    0.893368811704180  0.0000
  O1     O1        0.879932810576551    0.615901739300233    0.892332061748165  0.0000
  O1     O1        0.608500429634291    0.322830328433076    0.887777659864988  0.0000
  O3     O3        0.142545542382500    0.718295815800809    0.136617373664005  0.0000
  O1     O1        0.361344854972495    0.219062763050748    0.134872566298089  0.0000
  O3     O3        0.654291245850768    0.520709763434392    0.099611078698924  0.0000
  O1     O1        0.842272404054957    0.432094069179364    0.113508185974472  0.0000
  O1     O1        0.342086096294655    0.430628374382014    0.914665025864372  0.0000
  O3     O3        0.153617434991854    0.519675002060337    0.932137087647237  0.0000
  O1     O1        0.729964449715633    0.206812050186640    0.047273501892100  0.0000
  O3     O3        0.760488825415498    0.734335207093034    0.040756881876006  0.0000
  O1     O1        0.230586266370901    0.205770657935134    0.980605143368440  0.0000
  O3     O3        0.261259839903806    0.733164187540569    0.987152842581243  0.0000
