data_c00120.vasp
_audit_creation_method             Generated by GULP
_audit_author_name                 Salvador R. G. Balestra
_symmetry_space_group_name_H-M     'P 1             '
_symmetry_Int_Tables_number        1

loop_
_symmetry_equiv_pos_site_id
_symmetry_equiv_pos_as_xyz
_cell_length_a                       17.6419
_cell_length_b                        7.7855
_cell_length_c                       10.0818
_cell_angle_alpha                   88.6520
_cell_angle_beta                    89.2035
_cell_angle_gamma                   93.1471

loop_
_atom_site_label
_atom_site_type_symbol
_atom_site_fract_x
_atom_site_fract_y
_atom_site_fract_z
_atom_site_charge
  Ge     Ge        0.052090000000021    0.000000000000000    0.372269999999958  0.0000
  Ge     Ge        0.458024068661271    0.083715790322973    0.424456478859167  0.0000
  Ge     Ge        0.964704260501697    0.092285969056218    0.636645297515664  0.0000
  Ge     Ge        0.572376207034506    0.048296047163806    0.665112735892787  0.0000
  Ge     Ge        0.571128229277748    0.035843087628453    0.176057850337056  0.0000
  Ge     Ge        0.966554856385385    0.094578942708342    0.094549015289054  0.0000
  Ge     Ge        0.469791282422570    0.117436718598812    0.920850023469516  0.0000
  Ge     Ge        0.181068861401352    0.295895688275047    0.295846711081077  0.0000
  Ge     Ge        0.334801313574589    0.795627752893391    0.310980142183654  0.0000
  Ge     Ge        0.878801232013059    0.417323045000012    0.730245181440512  0.0000
  Ge     Ge        0.670596416586551    0.740550312576354    0.733911261980927  0.0000
  Ge     Ge        0.697938033326055    0.333099585056028    0.733447256051282  0.0000
  Ge     Ge        0.155209716756239    0.700387523820597    0.304629443628611  0.0000
  Ge     Ge        0.361220929112265    0.391980202107757    0.304691918161434  0.0000
  Ge     Ge        0.695005493245219    0.330323307821734    0.054954330837890  0.0000
  Ge     Ge        0.370218302131118    0.423349166349074    0.983006518067980  0.0000
  Ge     Ge        0.161674821525674    0.724843336519971    0.982108105337844  0.0000
  Ge     Ge        0.342355217809322    0.822714409896277    0.988904559539844  0.0000
  Ge     Ge        0.189846285291889    0.321228450622113    0.975086453469626  0.0000
  Ge     Ge        0.665795702943525    0.737299029169293    0.050869404109753  0.0000
  Ge     Ge        0.875383139425896    0.421126125135539    0.060005057141983  0.0000
  Si     Si        0.080910234668097    0.037135510513469    0.854264322762470  0.0000
  Si     Si        0.843811181485186    0.794317295414660    0.736100684923711  0.0000
  Si     Si        0.839409798305872    0.794677224046769    0.048978224140920  0.0000
  O1     O1        0.125913014828409    0.151811740405602    0.389342781821240  0.0000
  O1     O1        0.382761469029415    0.937088896766295    0.410864384308780  0.0000
  O1     O1        0.944362227226688    0.303459844764035    0.646008423167874  0.0000
  O1     O1        0.605272164692325    0.847874824478541    0.643244553705197  0.0000
  O3     O3        0.888313751205757    0.976006608724251    0.712065665998332  0.0000
  O1     O1        0.648247062952275    0.193347497841095    0.634699219356939  0.0000
  O1     O1        0.087789381707463    0.800696974496633    0.393406912387703  0.0000
  O1     O1        0.427825250613087    0.285648989234168    0.390398720709394  0.0000
  O1     O1        0.976858150849781    0.036351588981010    0.474204814570692  0.0000
  O1     O1        0.489806630574890    0.080943529028115    0.585504893036408  0.0000
  O1     O1        0.022190777482874    0.007457188474090    0.209573061475820  0.0000
  O1     O1        0.538128876785483    0.035683846615185    0.337431494828599  0.0000
  O3     O3        0.051080980020665    0.043664272910908    0.704676593626938  0.0000
  O1     O1        0.548409896935484    0.086691328534436    0.829871068819630  0.0000
  O1     O1        0.648983752952273    0.176449723628636    0.153780722858253  0.0000
  O3     O3        0.880711286545294    0.975944784506407    0.073702753111866  0.0000
  O1     O1        0.437183893230797    0.320214300162966    0.896783790046911  0.0000
  O3     O3        0.097667804135473    0.841996780480456    0.893922975440369  0.0000
  O1     O1        0.394248687108099    0.972219044610710    0.895669670116277  0.0000
  O3     O3        0.154166577338317    0.165039679769827    0.870112991841011  0.0000
  O1     O1        0.598590831587965    0.832050354865381    0.143758877253124  0.0000
  O1     O1        0.939602809139114    0.295399427360375    0.137284185510314  0.0000
  O1     O1        0.495490916966595    0.096336179503337    0.084936063968960  0.0000
  O3     O3        0.012231549408932    0.106074769725935    0.942057991243855  0.0000
  O1     O1        0.167836405859835    0.496241490077761    0.360103122292847  0.0000
  O1     O1        0.345221537814538    0.588615578011449    0.369827839338994  0.0000
  O3     O3        0.893701775573607    0.638113900691676    0.692312195763529  0.0000
  O1     O1        0.652735534058788    0.524537970798004    0.729939091454995  0.0000
  O1     O1        0.276870995936870    0.267149534972880    0.301073072305482  0.0000
  O1     O1        0.239124557335824    0.825324496077215    0.308563231284467  0.0000
  O1     O1        0.789273820987648    0.365367248942785    0.674604466439163  0.0000
  O3     O3        0.761969128200857    0.792726286391183    0.669428802633555  0.0000
  O1     O1        0.151878220788580    0.286382832036487    0.132523977906147  0.0000
  O1     O1        0.370539972776869    0.827481856355713    0.151835312379427  0.0000
  O1     O1        0.888091070254861    0.372392859528227    0.895471869394364  0.0000
  O1     O1        0.658850141842219    0.815993537495399    0.891442279678976  0.0000
  O2     O2        0.822250401465695    0.750961380784748    0.892805509246294  0.0000
  O1     O1        0.702733851556454    0.260199727757075    0.895278755094316  0.0000
  O1     O1        0.129233125443223    0.686683897137827    0.140559721230303  0.0000
  O1     O1        0.394734772901205    0.436397467598740    0.146776843498221  0.0000
  O1     O1        0.647666814187187    0.518534796071566    0.054659196158929  0.0000
  O3     O3        0.891018657995552    0.638907832186306    0.094380442386795  0.0000
  O1     O1        0.358466417339936    0.625098884575988    0.921940840867812  0.0000
  O1     O1        0.172161288497698    0.525330746148409    0.916533368050849  0.0000
  O1     O1        0.784483405820441    0.372295578763663    0.114285801162772  0.0000
  O3     O3        0.756232708604617    0.785183762111148    0.114851898418983  0.0000
  O1     O1        0.285349986497283    0.301443002779228    0.982181593655391  0.0000
  O1     O1        0.246299260233891    0.845034293007535    0.984019876541642  0.0000
