data_c00112.vasp
_audit_creation_method             Generated by GULP
_audit_author_name                 Salvador R. G. Balestra
_symmetry_space_group_name_H-M     'P 1             '
_symmetry_Int_Tables_number        1

loop_
_symmetry_equiv_pos_site_id
_symmetry_equiv_pos_as_xyz
_cell_length_a                       17.6541
_cell_length_b                        7.8505
_cell_length_c                       10.2296
_cell_angle_alpha                   90.3840
_cell_angle_beta                    91.0003
_cell_angle_gamma                   88.5170

loop_
_atom_site_label
_atom_site_type_symbol
_atom_site_fract_x
_atom_site_fract_y
_atom_site_fract_z
_atom_site_charge
  Ge     Ge        0.052090000000021    0.000000000000000    0.372269999999958  0.0000
  Ge     Ge        0.442019353496328    0.959057484470897    0.315894952534135  0.0000
  Ge     Ge        0.943794927483675    0.941009776752921    0.617784121579344  0.0000
  Ge     Ge        0.547392408803186    0.999276358787111    0.571214806353963  0.0000
  Ge     Ge        0.543967743697142    0.006272488428970    0.061361839870767  0.0000
  Ge     Ge        0.942952182988712    0.942861857916606    0.119351379893403  0.0000
  Ge     Ge        0.435860185604653    0.946526060824981    0.809622628861871  0.0000
  Ge     Ge        0.143925447510461    0.313952838616267    0.254996717607902  0.0000
  Ge     Ge        0.350320615839491    0.636426462165804    0.244787083025389  0.0000
  Ge     Ge        0.820002337008639    0.226553580330862    0.685794353874707  0.0000
  Ge     Ge        0.664999447000553    0.700208496513285    0.681035926218382  0.0000
  Ge     Ge        0.846208150222202    0.625291269783715    0.679620100249096  0.0000
  Ge     Ge        0.168771510531978    0.712244786100704    0.254907535017240  0.0000
  Ge     Ge        0.643467595948436    0.317841200161223    0.002371877069609  0.0000
  Ge     Ge        0.848096846658630    0.632831539328978    0.998613577039783  0.0000
  Ge     Ge        0.316245892935591    0.235967622582637    0.934816447258825  0.0000
  Ge     Ge        0.159453274805118    0.714860048209877    0.939758483815780  0.0000
  Ge     Ge        0.341799822702345    0.640863342142109    0.930635068941411  0.0000
  Ge     Ge        0.136326133426403    0.312734839859745    0.936606948847022  0.0000
  Ge     Ge        0.668322237062934    0.719704962274768    0.997262533294703  0.0000
  Ge     Ge        0.821314903606008    0.229535892094280    0.004874514710253  0.0000
  Si     Si        0.041420781677600    0.003700866874119    0.871896338025600  0.0000
  Si     Si        0.643492085791677    0.305424587464557    0.689370506117992  0.0000
  Si     Si        0.321862817880783    0.242971960061704    0.245956536673693  0.0000
  O1     O1        0.080988665075336    0.202981372065386    0.343504042313947  0.0000
  O1     O1        0.410039565007415    0.756353858734116    0.339805611863049  0.0000
  O1     O1        0.867420093909117    0.078942940738354    0.593245146630027  0.0000
  O1     O1        0.614624266172037    0.838939465066878    0.582852991249729  0.0000
  O1     O1        0.911103796910124    0.739177220939380    0.595209983546733  0.0000
  O3     O3        0.580746523676788    0.197529281356942    0.613559668728332  0.0000
  O1     O1        0.128156416343879    0.864060225603657    0.352987249691287  0.0000
  O3     O3        0.367666148613549    0.106834764629298    0.333824169086340  0.0000
  O1     O1        0.021191881482397    0.987146686763165    0.530593999178551  0.0000
  O1     O1        0.519049544063642    0.007575020822321    0.408684516638718  0.0000
  O1     O1        0.974880504323947    0.945905519234589    0.278370857964676  0.0000
  O1     O1        0.468478122916067    0.965405069599431    0.154122092771078  0.0000
  O3     O3        0.969355029781871    0.963943575375228    0.782919624981386  0.0000
  O1     O1        0.465073492378300    0.957990285525114    0.650550669753582  0.0000
  O1     O1        0.575631338248785    0.210878821962922    0.082433051696661  0.0000
  O1     O1        0.915465214280728    0.739113547468400    0.085879101637311  0.0000
  O1     O1        0.362758806763944    0.088668136884543    0.841721861958664  0.0000
  O3     O3        0.108478483610472    0.863568067518313    0.848485476438490  0.0000
  O1     O1        0.403556829588605    0.744917547280942    0.834716545842754  0.0000
  O3     O3        0.071975725392691    0.192512765126677    0.848076306556205  0.0000
  O1     O1        0.618866087380241    0.864755297579433    0.088760240641835  0.0000
  O1     O1        0.868171350701802    0.084827135719789    0.102194145549770  0.0000
  O1     O1        0.515455375269598    0.989337341429501    0.899902573952611  0.0000
  O3     O3        0.017875877266560    0.998923309156127    0.023832749578329  0.0000
  O1     O1        0.153023759587599    0.514058812540024    0.318989548196383  0.0000
  O3     O3        0.339151275906790    0.432061681529311    0.301193388268644  0.0000
  O1     O1        0.837364039599150    0.423265284000094    0.620299299613673  0.0000
  O3     O3        0.653037368313234    0.490965180894816    0.626874817864918  0.0000
  O3     O3        0.232499898232781    0.211237297741237    0.250872384476011  0.0000
  O1     O1        0.263698284192794    0.741636373032129    0.243492945690500  0.0000
  O3     O3        0.722825594695649    0.198310550709059    0.684523708510227  0.0000
  O1     O1        0.760339421620482    0.735278327807368    0.675391711079846  0.0000
  O1     O1        0.110765388121212    0.333434012123811    0.097331117831402  0.0000
  O1     O1        0.380273212720207    0.631352240065130    0.086252989114851  0.0000
  O1     O1        0.850623641914484    0.213303612353569    0.845923096115602  0.0000
  O1     O1        0.634923288650293    0.730576668086943    0.837862430370961  0.0000
  O1     O1        0.875913379485975    0.608251510740962    0.839975160242108  0.0000
  O3     O3        0.619199425055522    0.338563220479217    0.837692239448183  0.0000
  O1     O1        0.130322583311608    0.724773041092674    0.099269315516858  0.0000
  O3     O3        0.348992469818734    0.230911324766324    0.096006050960054  0.0000
  O1     O1        0.654250608067927    0.519130414571363    0.060717065956596  0.0000
  O1     O1        0.835711803341140    0.434273378227217    0.061454686964378  0.0000
  O1     O1        0.329507481913037    0.437117075859627    0.874839140713615  0.0000
  O1     O1        0.142896923319009    0.513818754004375    0.876034625226990  0.0000
  O1     O1        0.725821262799637    0.196785865424328    0.011198255778478  0.0000
  O1     O1        0.764016605973231    0.750673051913095    0.999561961090166  0.0000
  O1     O1        0.221214060168174    0.200803842223709    0.931675780925284  0.0000
  O1     O1        0.254917607688557    0.747196399798445    0.933635780734532  0.0000
