data_c00106.vasp
_audit_creation_method             Generated by GULP
_audit_author_name                 Salvador R. G. Balestra
_symmetry_space_group_name_H-M     'P 1             '
_symmetry_Int_Tables_number        1

loop_
_symmetry_equiv_pos_site_id
_symmetry_equiv_pos_as_xyz
_cell_length_a                       17.6376
_cell_length_b                        7.8359
_cell_length_c                       10.2873
_cell_angle_alpha                   91.1723
_cell_angle_beta                    90.8246
_cell_angle_gamma                   88.9684

loop_
_atom_site_label
_atom_site_type_symbol
_atom_site_fract_x
_atom_site_fract_y
_atom_site_fract_z
_atom_site_charge
  Ge     Ge        0.052090000000021    0.000000000000000    0.372269999999958  0.0000
  Ge     Ge        0.447292016751236    0.951271024030079    0.401159935907736  0.0000
  Ge     Ge        0.946344976524617    0.936782485470713    0.622280146572466  0.0000
  Ge     Ge        0.551727890888133    0.990445776454352    0.659948847705439  0.0000
  Ge     Ge        0.551435841941899    0.993681230067380    0.154170256212836  0.0000
  Ge     Ge        0.950999820566480    0.935771564046148    0.111595369793896  0.0000
  Ge     Ge        0.444067127575712    0.924749998098641    0.906008399632834  0.0000
  Ge     Ge        0.146422933930379    0.311931185977255    0.294684991063983  0.0000
  Ge     Ge        0.352043931451902    0.636013825629864    0.277742002511221  0.0000
  Ge     Ge        0.825067959739154    0.223405469455149    0.728017042345281  0.0000
  Ge     Ge        0.671962834055454    0.698808000161017    0.728347221874242  0.0000
  Ge     Ge        0.853228687415168    0.621959264852546    0.730302824339897  0.0000
  Ge     Ge        0.172456205710666    0.716440801192709    0.286757667709682  0.0000
  Ge     Ge        0.325534424955201    0.233391265109807    0.290328346837442  0.0000
  Ge     Ge        0.645478811014028    0.302147168156536    0.035398587356752  0.0000
  Ge     Ge        0.851528157430908    0.619691353955615    0.047462304802910  0.0000
  Ge     Ge        0.322150543663913    0.216085014904944    0.976783397585785  0.0000
  Ge     Ge        0.162658044457175    0.686374825971809    0.971541468402472  0.0000
  Ge     Ge        0.344154962720437    0.612816101552628    0.958821602120916  0.0000
  Ge     Ge        0.672009634966963    0.706641197590948    0.042866471890300  0.0000
  Ge     Ge        0.824300501618417    0.218527724286468    0.044364815743293  0.0000
  Si     Si        0.051925008107770    0.981098167074455    0.865843501972441  0.0000
  Si     Si        0.648847010727566    0.304692356442603    0.725273969384292  0.0000
  Si     Si        0.143245037662461    0.289031643609106    0.987846639239147  0.0000
  O1     O1        0.083592792049082    0.205530037763564    0.388074538988587  0.0000
  O1     O1        0.421338914939492    0.747282564718029    0.358028666943693  0.0000
  O1     O1        0.868115605603299    0.067159973772396    0.636608340708091  0.0000
  O1     O1        0.620989379876178    0.836865815182842    0.633147628593263  0.0000
  O1     O1        0.920639516713547    0.731422327577813    0.649257468022038  0.0000
  O3     O3        0.588544427961622    0.193148964653779    0.644004787190309  0.0000
  O1     O1        0.126750249499546    0.857506505742252    0.388462571248431  0.0000
  O1     O1        0.372378472392469    0.091102302870773    0.387074918337960  0.0000
  O1     O1        0.976846864515503    0.954132388404831    0.464997966003529  0.0000
  O1     O1        0.474848660602919    0.957263378680080    0.562474929348876  0.0000
  O1     O1        0.025240268455981    0.978583769772371    0.210130900353176  0.0000
  O1     O1        0.524590440753908    0.008806708263495    0.313824756231600  0.0000
  O3     O3        0.023367346405267    0.998712462734387    0.717843616279798  0.0000
  O1     O1        0.520482899260888    0.975510769565194    0.817792992154117  0.0000
  O1     O1        0.574601075217912    0.196038373757297    0.107060238116133  0.0000
  O1     O1        0.917116161436224    0.733869234629576    0.134493996158562  0.0000
  O1     O1        0.367453315995359    0.062907143660040    0.886751432998362  0.0000
  O3     O3        0.113185668282893    0.827089877494999    0.873754151076756  0.0000
  O1     O1        0.408125262346391    0.725230683697238    0.873029675662654  0.0000
  O2     O2        0.085731845679549    0.163890678645613    0.910927859073816  0.0000
  O1     O1        0.627318913561468    0.854943579249011    0.139989289958028  0.0000
  O1     O1        0.876318681667271    0.077624541786302    0.134070312465673  0.0000
  O1     O1        0.474109141779525    0.924996206005619    0.066547838056717  0.0000
  O3     O3        0.978925488171905    0.940293539101488    0.949823414756053  0.0000
  O1     O1        0.159034744415596    0.515480609579880    0.348653029545804  0.0000
  O1     O1        0.340057115839077    0.439836629161742    0.344971693730322  0.0000
  O1     O1        0.843990424048950    0.419532811385377    0.665571578507659  0.0000
  O3     O3        0.659212889333035    0.490812246028282    0.667779315731449  0.0000
  O1     O1        0.230135446332445    0.196565210322893    0.295179750690256  0.0000
  O1     O1        0.267820978731137    0.752406900647565    0.282818861145806  0.0000
  O3     O3        0.727707167572667    0.197317403535848    0.727033237176757  0.0000
  O1     O1        0.767584139834911    0.732514381890861    0.724095758547448  0.0000
  O3     O3        0.114611141717101    0.320866087812248    0.133544562921036  0.0000
  O1     O1        0.374175711218612    0.598564443005158    0.118407392968373  0.0000
  O1     O1        0.855070040786181    0.206453801407188    0.886397187540080  0.0000
  O1     O1        0.639847996452954    0.725620879778809    0.884676484425143  0.0000
  O1     O1        0.880115483541985    0.595087651786343    0.888872579985017  0.0000
  O3     O3        0.622366623862783    0.332312438061461    0.873293331075062  0.0000
  O1     O1        0.136374971111934    0.721027046072464    0.129510932264103  0.0000
  O1     O1        0.357548459910000    0.207819272194365    0.133479790276299  0.0000
  O1     O1        0.655915147117491    0.504201394688570    0.098855544496523  0.0000
  O1     O1        0.837900701916388    0.422142475353474    0.107902835960562  0.0000
  O1     O1        0.337238403442736    0.407487260762335    0.902895517083430  0.0000
  O3     O3        0.147263038852665    0.473917585717135    0.923301807493652  0.0000
  O1     O1        0.728457236413961    0.184052855464208    0.049247044810649  0.0000
  O1     O1        0.767835657103272    0.737220256871413    0.044295694448138  0.0000
  O3     O3        0.224972511374543    0.194673641844516    0.989244684183708  0.0000
  O1     O1        0.257595709438339    0.718909004513285    0.956473437665361  0.0000
