data_c00164.vasp
_audit_creation_method             Generated by GULP
_audit_author_name                 Salvador R. G. Balestra
_symmetry_space_group_name_H-M     'P 1             '
_symmetry_Int_Tables_number        1

loop_
_symmetry_equiv_pos_site_id
_symmetry_equiv_pos_as_xyz
_cell_length_a                       17.6033
_cell_length_b                        7.8294
_cell_length_c                       10.2324
_cell_angle_alpha                   88.6114
_cell_angle_beta                    90.6316
_cell_angle_gamma                   91.1295

loop_
_atom_site_label
_atom_site_type_symbol
_atom_site_fract_x
_atom_site_fract_y
_atom_site_fract_z
_atom_site_charge
  Ge     Ge        0.052090000000021    0.000000000000000    0.372269999999958  0.0000
  Ge     Ge        0.444059663975736    0.050155500191898    0.375891767607543  0.0000
  Ge     Ge        0.944111621188766    0.062301973965322    0.617723653275791  0.0000
  Ge     Ge        0.556255328584908    0.995921315249503    0.134817642250541  0.0000
  Ge     Ge        0.942812838540073    0.052114903019247    0.123335546660247  0.0000
  Ge     Ge        0.451627992369347    0.071032199599971    0.876970657851888  0.0000
  Ge     Ge        0.047971992242334    0.006010033716276    0.874083020314490  0.0000
  Ge     Ge        0.173746455660665    0.285669866273864    0.259759676237775  0.0000
  Ge     Ge        0.326660907607273    0.758785344358191    0.266123838690682  0.0000
  Ge     Ge        0.844759713411452    0.372232562102925    0.687696723680342  0.0000
  Ge     Ge        0.640528692352642    0.699474673325586    0.699572699717899  0.0000
  Ge     Ge        0.822096177974734    0.776388409285905    0.695027126859146  0.0000
  Ge     Ge        0.664662612070804    0.294703444508043    0.696891382373200  0.0000
  Ge     Ge        0.144356098505155    0.685126025930438    0.260879761833970  0.0000
  Ge     Ge        0.674405830411123    0.281862011584049    0.014682739834340  0.0000
  Ge     Ge        0.826416440777118    0.759360634782202    0.009743441770077  0.0000
  Ge     Ge        0.350781400564562    0.377757559256844    0.943711416447512  0.0000
  Ge     Ge        0.148743072479375    0.694522922470183    0.942312210016029  0.0000
  Ge     Ge        0.327702881342514    0.783360035197170    0.951388698737192  0.0000
  Ge     Ge        0.172850061477835    0.291056556681738    0.942491021923572  0.0000
  Ge     Ge        0.644536856956937    0.682406992913429    0.016180411125512  0.0000
  Si     Si        0.547315894926895    0.013846721029605    0.624588593750890  0.0000
  Si     Si        0.351241399495323    0.362726837793592    0.255398278126057  0.0000
  Si     Si        0.851016591789147    0.362734750013121    0.998972245934846  0.0000
  O1     O1        0.131643543767001    0.126687255298151    0.351338850030809  0.0000
  O1     O1        0.374101844001907    0.896669346319973    0.366815237343353  0.0000
  O1     O1        0.908926585616620    0.264726862964881    0.597657457345198  0.0000
  O3     O3        0.578291007279171    0.824102069732234    0.607132701028501  0.0000
  O1     O1        0.870714639621626    0.917277532189802    0.595255921601696  0.0000
  O3     O3        0.614119011518470    0.154204087074116    0.599714620073021  0.0000
  O1     O1        0.076534072438246    0.793542625586509    0.342701691247767  0.0000
  O3     O3        0.412615766644785    0.252361528087400    0.335164671943551  0.0000
  O1     O1        0.023151858162890    0.019313996413485    0.531827290265234  0.0000
  O3     O3        0.473398096221169    0.052204115743074    0.539121287608117  0.0000
  O1     O1        0.973827339443508    0.062753103694431    0.282925506455223  0.0000
  O1     O1        0.524189721332613    0.003717272176352    0.291958976399986  0.0000
  O1     O1        0.970275834075437    0.046124179092366    0.781227880581252  0.0000
  O3     O3        0.526095585693827    0.030290513385041    0.777742692778700  0.0000
  O1     O1        0.635942958282032    0.124022689080294    0.111511174037763  0.0000
  O1     O1        0.872825915252834    0.897327913521808    0.111424781576877  0.0000
  O1     O1        0.417229006214402    0.274383526941616    0.856636537625930  0.0000
  O1     O1        0.085336803974595    0.807685350479038    0.849220369310009  0.0000
  O1     O1        0.378178830783148    0.925484968554443    0.856715740336094  0.0000
  O1     O1        0.119462694294695    0.156839920270188    0.849107674800393  0.0000
  O1     O1        0.580092046824973    0.788625798296332    0.105398582771872  0.0000
  O3     O3        0.913663909369792    0.255241080275077    0.076967164409164  0.0000
  O1     O1        0.482945420722988    0.061605809983660    0.036543085063325  0.0000
  O1     O1        0.021053167696887    0.002254295226116    0.035978806531269  0.0000
  O1     O1        0.153363796176661    0.480474155924614    0.323194236785503  0.0000
  O3     O3        0.340722465994407    0.547559707734857    0.317098319683328  0.0000
  O1     O1        0.833607641386333    0.576116758081868    0.631267936784567  0.0000
  O1     O1        0.649582113142346    0.500426530604296    0.637735629079719  0.0000
  O3     O3        0.271225474051166    0.258748503550711    0.257413541179887  0.0000
  O1     O1        0.230859465698058    0.791903751753238    0.270029887192292  0.0000
  O1     O1        0.760102058066410    0.258256933692477    0.686080260566241  0.0000
  O1     O1        0.726429107629334    0.809476366491237    0.701073701776545  0.0000
  O1     O1        0.141475124539122    0.273252611714917    0.101290310120176  0.0000
  O1     O1        0.360270998484865    0.795293988410128    0.110885354033279  0.0000
  O3     O3        0.875371165121496    0.390099759258553    0.849039659527061  0.0000
  O1     O1        0.610960023438964    0.672171909605568    0.857799699751088  0.0000
  O1     O1        0.857685733851969    0.790488014495663    0.852562726778493  0.0000
  O1     O1        0.638013695904899    0.275964659503450    0.858012328095858  0.0000
  O1     O1        0.117748177626744    0.665979508956971    0.100467815064402  0.0000
  O3     O3        0.377760302414058    0.393425458015900    0.107221984888511  0.0000
  O1     O1        0.655529835696294    0.478451296581344    0.076973260348591  0.0000
  O3     O3        0.841418878105725    0.547904611520924    0.060204064132149  0.0000
  O1     O1        0.339340245035660    0.581964288085323    0.888835500372667  0.0000
  O1     O1        0.163115897301158    0.497780368697609    0.881513016277644  0.0000
  O3     O3        0.771628140502397    0.256356625570939    0.004709951801794  0.0000
  O1     O1        0.730603292530899    0.790880263523174    0.014919678254562  0.0000
  O1     O1        0.268499864598436    0.254800321814806    0.937967644852931  0.0000
  O1     O1        0.231903777361798    0.816004551983858    0.950735288662856  0.0000
