data_c00121.vasp
_audit_creation_method             Generated by GULP
_audit_author_name                 Salvador R. G. Balestra
_symmetry_space_group_name_H-M     'P 1             '
_symmetry_Int_Tables_number        1

loop_
_symmetry_equiv_pos_site_id
_symmetry_equiv_pos_as_xyz
_cell_length_a                       17.6234
_cell_length_b                        7.8327
_cell_length_c                       10.3103
_cell_angle_alpha                   89.1315
_cell_angle_beta                    90.0883
_cell_angle_gamma                   88.8443

loop_
_atom_site_label
_atom_site_type_symbol
_atom_site_fract_x
_atom_site_fract_y
_atom_site_fract_z
_atom_site_charge
  Ge     Ge        0.052090000000021    0.000000000000000    0.372269999999958  0.0000
  Ge     Ge        0.448208106451260    0.954038043941472    0.360634451845778  0.0000
  Ge     Ge        0.948391662387646    0.954503037895308    0.628545869763458  0.0000
  Ge     Ge        0.551507040664112    0.011200076309500    0.614616729219238  0.0000
  Ge     Ge        0.555380806883356    0.003152453201288    0.114776262974799  0.0000
  Ge     Ge        0.944569243121436    0.943229230863406    0.123020344281331  0.0000
  Ge     Ge        0.446846525947630    0.953429982369869    0.868360487470097  0.0000
  Ge     Ge        0.143591584521220    0.318241236602051    0.256724830779133  0.0000
  Ge     Ge        0.354563099573378    0.640083296175480    0.246611143717992  0.0000
  Ge     Ge        0.828742721315794    0.247101607762913    0.690782029467498  0.0000
  Ge     Ge        0.673513759885730    0.725875038950539    0.693792255839563  0.0000
  Ge     Ge        0.649415795505556    0.324796167729489    0.682077329297244  0.0000
  Ge     Ge        0.173928661044710    0.718931939855622    0.258576700738129  0.0000
  Ge     Ge        0.324768600682280    0.238765807437005    0.252515710247294  0.0000
  Ge     Ge        0.852516537413439    0.631114439291447    0.007586910984515  0.0000
  Ge     Ge        0.323011929246385    0.240557640130027    0.938361428395382  0.0000
  Ge     Ge        0.164871781233912    0.723194073643654    0.943932578696952  0.0000
  Ge     Ge        0.344828383883416    0.642807141413293    0.930097164972077  0.0000
  Ge     Ge        0.142651357333768    0.320344128878193    0.941783879273204  0.0000
  Ge     Ge        0.671917672863844    0.708590215521706    0.007114378698909  0.0000
  Ge     Ge        0.824847445568821    0.229406020605498    0.005955393699213  0.0000
  Si     Si        0.046342232305346    0.013557191140144    0.878784727560245  0.0000
  Si     Si        0.850140467415478    0.643025822709982    0.699038793997346  0.0000
  Si     Si        0.648268981752067    0.311558359830693    0.993193805022873  0.0000
  O1     O1        0.077007513692177    0.207516152487879    0.342527379156038  0.0000
  O1     O1        0.424170797457565    0.748783538590715    0.324522758572235  0.0000
  O1     O1        0.881803675977344    0.113140279517814    0.596202866137109  0.0000
  O1     O1        0.628474870355169    0.873980319328411    0.597119149270469  0.0000
  O3     O3        0.909019264500619    0.754087836595076    0.616995544504456  0.0000
  O1     O1        0.583045447898865    0.216407101172694    0.596527034124555  0.0000
  O1     O1        0.129760952604542    0.869375378994174    0.350965796548706  0.0000
  O1     O1        0.370479644147612    0.086572967452365    0.345353344189110  0.0000
  O1     O1        0.025038407704584    0.975215234506354    0.531843443489001  0.0000
  O1     O1        0.476388697228593    0.961885541080178    0.521014630019075  0.0000
  O1     O1        0.974827008671383    0.945968319234545    0.280683901011185  0.0000
  O1     O1        0.525485591847444    0.018799887660009    0.272903283970809  0.0000
  O3     O3        0.975085808416390    0.977389346394215    0.789826249818559  0.0000
  O1     O1        0.523374187986584    0.991549092046830    0.774758462889677  0.0000
  O3     O3        0.584984484616093    0.204174231117427    0.066738998515304  0.0000
  O1     O1        0.921332693204597    0.736971470366582    0.087806350900060  0.0000
  O1     O1        0.374645387256398    0.102979409026878    0.845710378704409  0.0000
  O3     O3        0.112337425012577    0.871846392769778    0.855476333908633  0.0000
  O1     O1        0.408235114694410    0.756676704648261    0.840801250998280  0.0000
  O3     O3        0.079374164665288    0.201295951135224    0.853339052470569  0.0000
  O1     O1        0.624686080310214    0.846582163799362    0.106584201182895  0.0000
  O1     O1        0.866038270259736    0.074311904281497    0.101757488537091  0.0000
  O1     O1        0.476603464793294    0.951263388579787    0.027977712486403  0.0000
  O3     O3        0.020002105697256    0.008934946111711    0.029002863302365  0.0000
  O1     O1        0.157682201396702    0.516598098199847    0.319571814436932  0.0000
  O1     O1        0.342993765189833    0.439011725627277    0.311137604087730  0.0000
  O3     O3        0.839150459737521    0.458486669801912    0.638214843009935  0.0000
  O1     O1        0.656013471005614    0.529763986160812    0.627401292172183  0.0000
  O1     O1        0.228855715035296    0.206643885064131    0.256070808189392  0.0000
  O1     O1        0.269629949849072    0.752832444778841    0.255874380099592  0.0000
  O1     O1        0.733704392682022    0.210733406506725    0.674697233087195  0.0000
  O3     O3        0.770757985866934    0.750294164721204    0.702122090108755  0.0000
  O1     O1        0.113476710246229    0.344678649567348    0.099205678737988  0.0000
  O1     O1        0.377384825532924    0.615893430948864    0.086750162309096  0.0000
  O1     O1        0.856404433309325    0.215311848246127    0.849145360703677  0.0000
  O1     O1        0.640759226544941    0.742045427056985    0.850765826651686  0.0000
  O3     O3        0.878332094292446    0.613437773811295    0.846018199410493  0.0000
  O3     O3        0.624303690117713    0.341615890853662    0.844330886350910  0.0000
  O1     O1        0.137614333448502    0.731540998487220    0.103518875257996  0.0000
  O1     O1        0.356558503371042    0.224902236736194    0.095184067698863  0.0000
  O3     O3        0.657895149314576    0.496988269867785    0.055168064697250  0.0000
  O1     O1        0.845078418709638    0.426751109347741    0.066756349328640  0.0000
  O1     O1        0.332050559016229    0.443269793137447    0.871930095873783  0.0000
  O1     O1        0.150935625214407    0.522827741166555    0.880238019849484  0.0000
  O3     O3        0.727305328715441    0.204597604516823    0.001648880843972  0.0000
  O1     O1        0.767602059080494    0.741166042008872    0.018442374341432  0.0000
  O1     O1        0.227231037296090    0.206213748444778    0.942025557993991  0.0000
  O1     O1        0.260302357522402    0.758636769486554    0.935306682722577  0.0000
