data_c00172.vasp
_audit_creation_method             Generated by GULP
_audit_author_name                 Salvador R. G. Balestra
_symmetry_space_group_name_H-M     'P 1             '
_symmetry_Int_Tables_number        1

loop_
_symmetry_equiv_pos_site_id
_symmetry_equiv_pos_as_xyz
_cell_length_a                       17.5913
_cell_length_b                        7.8718
_cell_length_c                       10.1876
_cell_angle_alpha                   90.2858
_cell_angle_beta                    90.0540
_cell_angle_gamma                   87.9506

loop_
_atom_site_label
_atom_site_type_symbol
_atom_site_fract_x
_atom_site_fract_y
_atom_site_fract_z
_atom_site_charge
  Ge     Ge        0.052090000000021    0.000000000000000    0.372269999999958  0.0000
  Ge     Ge        0.444869759548735    0.946071630395365    0.351340045388604  0.0000
  Ge     Ge        0.947628760122068    0.935286503186949    0.622391474595399  0.0000
  Ge     Ge        0.550897396062373    0.002651770927467    0.096579137286630  0.0000
  Ge     Ge        0.942392119584403    0.945593224347221    0.128133624167250  0.0000
  Ge     Ge        0.448504216630718    0.944098073164584    0.838939403987857  0.0000
  Ge     Ge        0.049191396055427    0.004554922535541    0.878841017204437  0.0000
  Ge     Ge        0.141892120903479    0.317697562968108    0.259773158581503  0.0000
  Ge     Ge        0.348014270343994    0.633520911641163    0.275256381267116  0.0000
  Ge     Ge        0.824190073653193    0.224552055802689    0.697646595960177  0.0000
  Ge     Ge        0.666866621543295    0.700614693398149    0.702771613724609  0.0000
  Ge     Ge        0.850109084313023    0.624957923061746    0.693302323538055  0.0000
  Ge     Ge        0.642265549798573    0.299384442241338    0.706958183713911  0.0000
  Ge     Ge        0.324506769930871    0.235193123688175    0.270717322460714  0.0000
  Ge     Ge        0.649201453935562    0.310846239581575    0.025624962869953  0.0000
  Ge     Ge        0.853731899484262    0.627667772621441    0.009299448218487  0.0000
  Ge     Ge        0.327140654721382    0.232056904164943    0.952879973663287  0.0000
  Ge     Ge        0.174948491807370    0.715391350468086    0.946003350687099  0.0000
  Ge     Ge        0.355735417468218    0.634001458413525    0.955566719501495  0.0000
  Ge     Ge        0.145204587043944    0.317776047085093    0.943813573225229  0.0000
  Ge     Ge        0.671317257943863    0.707867926527499    0.020075330348797  0.0000
  Si     Si        0.551949838317124    0.991178014916160    0.592627453126029  0.0000
  Si     Si        0.169827622570413    0.709188373783460    0.258463958860372  0.0000
  Si     Si        0.827206757737249    0.233235868569964    0.009039603843225  0.0000
  O1     O1        0.079496519980193    0.204924791166652    0.351317151281885  0.0000
  O1     O1        0.407978851653121    0.749277565442275    0.370192427499121  0.0000
  O1     O1        0.873814057223405    0.082857501581009    0.601517169738185  0.0000
  O3     O3        0.621953606586377    0.858097042711768    0.611115696292856  0.0000
  O1     O1        0.911694408211157    0.737644045138202    0.599497022281839  0.0000
  O3     O3        0.575545135925280    0.181746875045638    0.625714847524963  0.0000
  O3     O3        0.125975451616855    0.856529542444822    0.339036425161948  0.0000
  O1     O1        0.371626504454754    0.093473447476540    0.371138449306890  0.0000
  O1     O1        0.027065060891909    0.974112959992463    0.534433377093845  0.0000
  O3     O3        0.525013230980944    0.983136916927565    0.441734320159442  0.0000
  O1     O1        0.969588891875123    0.959701207120628    0.289648958290602  0.0000
  O1     O1        0.474179559321374    0.963618955481725    0.189788214352028  0.0000
  O1     O1        0.973387067476900    0.955835911700224    0.785832121253416  0.0000
  O3     O3        0.478811951873704    0.941213754736296    0.677020958968807  0.0000
  O1     O1        0.590404839527642    0.197535521665502    0.121891784222618  0.0000
  O1     O1        0.915785589587013    0.739902422940562    0.101625612535680  0.0000
  O1     O1        0.370876634692217    0.080560879787410    0.856007503350025  0.0000
  O1     O1        0.124986850045868    0.861177746266360    0.856361386302045  0.0000
  O1     O1        0.424173734145866    0.739523269509042    0.874045611714261  0.0000
  O1     O1        0.082913425477322    0.203966585699164    0.851846734157060  0.0000
  O1     O1        0.623374063020301    0.852223237891147    0.116333555775586  0.0000
  O3     O3        0.868218375851023    0.090090702412015    0.096887950051754  0.0000
  O1     O1        0.522160112368110    0.005988231366767    0.934376581445320  0.0000
  O1     O1        0.021699133022221    0.992469160899563    0.041002964434527  0.0000
  O3     O3        0.152853458370735    0.523862409360447    0.317458646813858  0.0000
  O1     O1        0.340113188511789    0.434460721276914    0.335127031653319  0.0000
  O1     O1        0.839131108286958    0.424372834583400    0.635528503663403  0.0000
  O1     O1        0.649539462014157    0.500260649290693    0.642864030450372  0.0000
  O1     O1        0.228535839518219    0.209372751599994    0.266302308838321  0.0000
  O3     O3        0.259581181099420    0.739065023414222    0.265407333606841  0.0000
  O1     O1        0.728784914434771    0.191212414023147    0.695404227249294  0.0000
  O1     O1        0.762701600465718    0.731159029929020    0.698872127749453  0.0000
  O1     O1        0.110031872903330    0.328798147868887    0.101831259898491  0.0000
  O1     O1        0.382043295592854    0.619184185708708    0.117540668744707  0.0000
  O3     O3        0.856800418823504    0.220105645301145    0.859381435957960  0.0000
  O1     O1        0.635757217549029    0.717441525004068    0.862068973158286  0.0000
  O1     O1        0.885636885910539    0.617864138296494    0.850922601779259  0.0000
  O1     O1        0.615445147873078    0.326267840462222    0.867032911760864  0.0000
  O3     O3        0.143085677777499    0.713622483875334    0.107626647972413  0.0000
  O1     O1        0.359189212520277    0.218001754615802    0.112596402451694  0.0000
  O1     O1        0.657336358951954    0.510177535167803    0.086793231718593  0.0000
  O3     O3        0.843670619324119    0.421284445540476    0.064806152911069  0.0000
  O1     O1        0.345056532087530    0.432776890897111    0.895300031061683  0.0000
  O1     O1        0.158317842510380    0.515294981128019    0.882949629487209  0.0000
  O3     O3        0.737390739794747    0.205498160182086    0.010707111949644  0.0000
  O1     O1        0.767111479659968    0.735761374277993    0.014000932672098  0.0000
  O1     O1        0.231060338586492    0.205600508807067    0.952550849163376  0.0000
  O1     O1        0.270304398689454    0.747991213232030    0.942646428646707  0.0000
