data_c00104.vasp
_audit_creation_method             Generated by GULP
_audit_author_name                 Salvador R. G. Balestra
_symmetry_space_group_name_H-M     'P 1             '
_symmetry_Int_Tables_number        1

loop_
_symmetry_equiv_pos_site_id
_symmetry_equiv_pos_as_xyz
_cell_length_a                       17.6178
_cell_length_b                        7.8465
_cell_length_c                       10.2028
_cell_angle_alpha                   91.2933
_cell_angle_beta                    90.5466
_cell_angle_gamma                   88.4241

loop_
_atom_site_label
_atom_site_type_symbol
_atom_site_fract_x
_atom_site_fract_y
_atom_site_fract_z
_atom_site_charge
  Ge     Ge        0.052090000000021    0.000000000000000    0.372269999999958  0.0000
  Ge     Ge        0.452504865082338    0.943827364987339    0.366442083866245  0.0000
  Ge     Ge        0.949304885082651    0.916406022283789    0.620336603406940  0.0000
  Ge     Ge        0.559557464548892    0.975336869018377    0.618091209957497  0.0000
  Ge     Ge        0.551639131410503    0.000602764365430    0.107396566430787  0.0000
  Ge     Ge        0.952783367571665    0.945973181299270    0.107141111570920  0.0000
  Ge     Ge        0.445208244453967    0.931060377682039    0.853955702679727  0.0000
  Ge     Ge        0.148376125338708    0.308674759786257    0.295847292267202  0.0000
  Ge     Ge        0.354277125317191    0.628835462510310    0.295195190031088  0.0000
  Ge     Ge        0.827349135427098    0.206935993804119    0.736482807373883  0.0000
  Ge     Ge        0.675093731398134    0.677655366492222    0.723837775088101  0.0000
  Ge     Ge        0.859370989001562    0.602744003507863    0.723946174902880  0.0000
  Ge     Ge        0.174302293334390    0.710915045198398    0.295662735872314  0.0000
  Ge     Ge        0.328620995239172    0.225541647380551    0.289477380658383  0.0000
  Ge     Ge        0.655523264830260    0.309238604128277    0.056127125443458  0.0000
  Ge     Ge        0.856620889132930    0.625742082378220    0.039225671462571  0.0000
  Ge     Ge        0.325760858558764    0.220189092274525    0.971958728300467  0.0000
  Ge     Ge        0.170786382305433    0.702680691150327    0.977008035663509  0.0000
  Ge     Ge        0.353013081073362    0.622478655518816    0.975841931673854  0.0000
  Ge     Ge        0.143491482129916    0.300261341241240    0.978624916833633  0.0000
  Ge     Ge        0.674612861765767    0.707747124956035    0.037926407519640  0.0000
  Si     Si        0.055785656402477    0.986895904510047    0.860470357438841  0.0000
  Si     Si        0.651680460822617    0.286373236441138    0.738779802892710  0.0000
  Si     Si        0.830489141216032    0.234319363274913    0.052050309149929  0.0000
  O1     O1        0.087449341899805    0.200338996172858    0.392309275043588  0.0000
  O1     O1        0.419110321071250    0.742231852295314    0.385493632404012  0.0000
  O1     O1        0.869762706569591    0.035397737864405    0.661758803864334  0.0000
  O1     O1        0.629112413080430    0.820020520859484    0.623632683991476  0.0000
  O1     O1        0.924147242126518    0.708557448649478    0.632661841375631  0.0000
  O3     O3        0.586640042913461    0.175446326277893    0.672028118388112  0.0000
  O1     O1        0.124099315075253    0.850541792382200    0.394524743908704  0.0000
  O1     O1        0.378414298359288    0.089129597428220    0.388173485357341  0.0000
  O1     O1        0.973999232320506    0.959880273365399    0.462114223040164  0.0000
  O1     O1        0.531419581306131    0.988567398233292    0.455909507651595  0.0000
  O1     O1        0.026833768144568    0.985451286347951    0.207639935073191  0.0000
  O1     O1        0.476931544513615    0.959512708359704    0.202706906875394  0.0000
  O3     O3        0.029521394208800    0.971650148736048    0.709530134943471  0.0000
  O1     O1        0.477177490580874    0.924834245313871    0.695424739929368  0.0000
  O1     O1        0.588231491588221    0.201080735383046    0.134696150298704  0.0000
  O1     O1        0.915687174918870    0.748915806148832    0.132907366160875  0.0000
  O1     O1        0.368260989573597    0.068215414002514    0.872988857335629  0.0000
  O3     O3        0.126627615073960    0.858643958256447    0.885061318168143  0.0000
  O1     O1        0.419161938101126    0.728083249153679    0.890744208387984  0.0000
  O3     O3        0.078108933673536    0.181114290192363    0.891656575288276  0.0000
  O1     O1        0.626574256631298    0.858166432065583    0.129210157997569  0.0000
  O3     O3        0.881547225069946    0.101130301210905    0.131622521738245  0.0000
  O1     O1        0.521183779782996    0.995091930142737    0.946792600645159  0.0000
  O3     O3        0.983385764188727    0.938897915172287    0.945703244288397  0.0000
  O1     O1        0.162680456411939    0.509176353301443    0.356128520350022  0.0000
  O1     O1        0.341442787982421    0.429838944145459    0.352332507241614  0.0000
  O1     O1        0.852006662965704    0.395363976475940    0.668003174947985  0.0000
  O3     O3        0.658441916923029    0.468628587571838    0.671510555846159  0.0000
  O1     O1        0.232904353817904    0.191633939878986    0.288166116970881  0.0000
  O1     O1        0.269678654531978    0.746644579988306    0.295071178228819  0.0000
  O3     O3        0.730554159291876    0.178544249855871    0.724758605783080  0.0000
  O1     O1        0.771117741667562    0.702526067510007    0.718532840877217  0.0000
  O1     O1        0.114016905097162    0.324909791107604    0.137692588678042  0.0000
  O1     O1        0.383526353195375    0.606459942108239    0.135312164174693  0.0000
  O3     O3        0.853468420423653    0.222530005157139    0.899688659333509  0.0000
  O1     O1        0.640716115903817    0.717307462765961    0.878615333127926  0.0000
  O1     O1        0.891446411104624    0.605115797759756    0.883287242078145  0.0000
  O3     O3        0.634721078467496    0.326934017110818    0.890368962980512  0.0000
  O1     O1        0.140665433749189    0.718794445830390    0.136345474470734  0.0000
  O1     O1        0.360414929532474    0.207676548107195    0.129970771781778  0.0000
  O1     O1        0.659952776877323    0.514515288432189    0.110831231755045  0.0000
  O3     O3        0.844838988360590    0.427089716606918    0.104695262116064  0.0000
  O1     O1        0.341717892855487    0.420121678784944    0.913171847921279  0.0000
  O1     O1        0.151294049340040    0.500937766340673    0.916561629757237  0.0000
  O3     O3        0.742003650136991    0.197971686518765    0.068792687022117  0.0000
  O1     O1        0.770418050607040    0.733709623208818    0.030066523472832  0.0000
  O1     O1        0.229552523555759    0.193177278178533    0.975330210921895  0.0000
  O1     O1        0.266664986230242    0.731561033019465    0.972639022094137  0.0000
