data_c00169.vasp
_audit_creation_method             Generated by GULP
_audit_author_name                 Salvador R. G. Balestra
_symmetry_space_group_name_H-M     'P 1             '
_symmetry_Int_Tables_number        1

loop_
_symmetry_equiv_pos_site_id
_symmetry_equiv_pos_as_xyz
_cell_length_a                       17.6929
_cell_length_b                        7.8704
_cell_length_c                       10.3170
_cell_angle_alpha                   88.5371
_cell_angle_beta                    91.3597
_cell_angle_gamma                   89.3402

loop_
_atom_site_label
_atom_site_type_symbol
_atom_site_fract_x
_atom_site_fract_y
_atom_site_fract_z
_atom_site_charge
  Ge     Ge        0.052090000000021    0.000000000000000    0.372269999999958  0.0000
  Ge     Ge        0.447039325384779    0.026286451335393    0.405639105875598  0.0000
  Ge     Ge        0.939610166084392    0.019882558608797    0.612999254220432  0.0000
  Ge     Ge        0.562172435735243    0.026977051650960    0.175493376804843  0.0000
  Ge     Ge        0.950365444956832    0.004349780467468    0.111458735634036  0.0000
  Ge     Ge        0.446906975633605    0.029324003755534    0.933420418977204  0.0000
  Ge     Ge        0.054221751061373    0.005827706144567    0.861333492900529  0.0000
  Ge     Ge        0.174635195683320    0.271959585007431    0.300895838515715  0.0000
  Ge     Ge        0.332892949709676    0.729365794394634    0.305460010894167  0.0000
  Ge     Ge        0.820129574400512    0.305230862021937    0.727003392951269  0.0000
  Ge     Ge        0.656491230535160    0.773602410959783    0.739715179981855  0.0000
  Ge     Ge        0.837884407108794    0.711353600042503    0.726744966162911  0.0000
  Ge     Ge        0.639551045057953    0.367088660343867    0.734844586314794  0.0000
  Ge     Ge        0.149779219085580    0.684520339528131    0.297570579301965  0.0000
  Ge     Ge        0.644375677061459    0.354324664341762    0.051163209471863  0.0000
  Ge     Ge        0.854894136070550    0.685084164250732    0.039804571714354  0.0000
  Ge     Ge        0.147194800061210    0.687190158570249    0.983583553226507  0.0000
  Ge     Ge        0.329621398966802    0.739044170359831    0.984621666162840  0.0000
  Ge     Ge        0.174121985580401    0.274709481898850    0.988705008642675  0.0000
  Ge     Ge        0.673614054277200    0.756092806332841    0.052934049807343  0.0000
  Ge     Ge        0.825361847726377    0.284685493655866    0.042810436135399  0.0000
  Si     Si        0.538653845122415    0.065421651971613    0.666422912352588  0.0000
  Si     Si        0.344534764895206    0.342225321487198    0.299830975740631  0.0000
  Si     Si        0.343485097359202    0.353157985452715    0.993989903625654  0.0000
  O1     O1        0.125497245990678    0.137281776598694    0.399488758610580  0.0000
  O1     O1        0.383590369576136    0.866556176949748    0.398670627969315  0.0000
  O1     O1        0.872151764001245    0.174609947177763    0.632506155061966  0.0000
  O3     O3        0.600358885986803    0.915736102689669    0.648620343772458  0.0000
  O1     O1        0.899020027388191    0.825253653009773    0.634436996661357  0.0000
  O3     O3        0.576692865609274    0.247877349627534    0.644833856090753  0.0000
  O1     O1        0.087245343651609    0.795370547425096    0.388919408456357  0.0000
  O3     O3        0.411009001094781    0.208154894249188    0.325236406839021  0.0000
  O1     O1        0.972260455530430    0.031774004977920    0.457378236154920  0.0000
  O3     O3        0.467651428065997    0.052820889262661    0.568418670319716  0.0000
  O1     O1        0.023909374559155    0.043477410248971    0.212915627197921  0.0000
  O1     O1        0.530391401965189    0.993610895179117    0.329542849806276  0.0000
  O1     O1        0.021204157258845    0.038694152627985    0.705192248520774  0.0000
  O3     O3        0.511256299817036    0.050884380298407    0.813614709101303  0.0000
  O1     O1        0.582610569053930    0.236081003852172    0.140342798953901  0.0000
  O1     O1        0.921071341587001    0.796274504726391    0.125646808129421  0.0000
  O3     O3        0.411996578402364    0.229310114621896    0.969094419810690  0.0000
  O1     O1        0.082816479305997    0.796820202305903    0.887368646290842  0.0000
  O1     O1        0.376503353359841    0.890757803968073    0.896785310243943  0.0000
  O1     O1        0.130200591165394    0.135094448326289    0.889254448379871  0.0000
  O1     O1        0.640863936279642    0.902127947260772    0.157681330094726  0.0000
  O1     O1        0.873310794173213    0.134733666184135    0.134168575228556  0.0000
  O1     O1        0.493121441555334    0.954175559873350    0.070778855432667  0.0000
  O1     O1        0.979274184871697    0.051328773875133    0.956557374621365  0.0000
  O1     O1        0.133890430956911    0.470851720256065    0.304833836798710  0.0000
  O3     O3        0.369765946826679    0.527023868293706    0.343137350121943  0.0000
  O1     O1        0.826106292919685    0.511505972205372    0.668513473192429  0.0000
  O1     O1        0.643605266781401    0.572966230557015    0.678817166761738  0.0000
  O3     O3        0.267227371381716    0.279989546767437    0.363493561646602  0.0000
  O1     O1        0.240511219474975    0.727865912480747    0.349374283184514  0.0000
  O1     O1        0.725159795849191    0.262131641631250    0.727218840728441  0.0000
  O1     O1        0.751473722123593    0.815475315077065    0.729577525510623  0.0000
  O1     O1        0.172984183160152    0.196924260763510    0.145628167483939  0.0000
  O1     O1        0.339400198491358    0.791419099515960    0.145534304551635  0.0000
  O1     O1        0.853408472952138    0.286006424061861    0.883920349492900  0.0000
  O1     O1        0.632494838851453    0.779395942895362    0.899959764780095  0.0000
  O1     O1        0.878925551092630    0.690230681614002    0.879074503462109  0.0000
  O1     O1        0.612553402183347    0.375313916307172    0.893404221209808  0.0000
  O1     O1        0.138620851283661    0.756020207350649    0.139253445859637  0.0000
  O2     O2        0.319732644642923    0.370573853225010    0.146400460713584  0.0000
  O1     O1        0.656621942700583    0.552917039205616    0.111699776810473  0.0000
  O1     O1        0.846240133944959    0.483683079510526    0.101030766509800  0.0000
  O3     O3        0.368057876601583    0.541013162210231    0.951203581242083  0.0000
  O1     O1        0.131382780038025    0.472355767503555    0.979863493923733  0.0000
  O1     O1        0.730525720696673    0.249734651655174    0.050013129290194  0.0000
  O1     O1        0.768401842754781    0.787188495110800    0.039246108263148  0.0000
  O3     O3        0.265616547198344    0.292066490647152    0.929146391792540  0.0000
  O1     O1        0.237263058502373    0.732422012169194    0.935123733754889  0.0000
