data_c00143.vasp
_audit_creation_method             Generated by GULP
_audit_author_name                 Salvador R. G. Balestra
_symmetry_space_group_name_H-M     'P 1             '
_symmetry_Int_Tables_number        1

loop_
_symmetry_equiv_pos_site_id
_symmetry_equiv_pos_as_xyz
_cell_length_a                       17.6105
_cell_length_b                        7.8617
_cell_length_c                       10.3154
_cell_angle_alpha                   89.8397
_cell_angle_beta                    90.2692
_cell_angle_gamma                   88.2020

loop_
_atom_site_label
_atom_site_type_symbol
_atom_site_fract_x
_atom_site_fract_y
_atom_site_fract_z
_atom_site_charge
  Ge     Ge        0.052090000000021    0.000000000000000    0.372269999999958  0.0000
  Ge     Ge        0.451032750531300    0.937882588532436    0.355378922534045  0.0000
  Ge     Ge        0.950451738969055    0.938186507179571    0.629036831705096  0.0000
  Ge     Ge        0.554362912931893    0.994421887602281    0.611766388615580  0.0000
  Ge     Ge        0.555520024476618    0.990406367399281    0.099787499416149  0.0000
  Ge     Ge        0.053484352518743    0.996252264522844    0.886605816464160  0.0000
  Ge     Ge        0.148177528369356    0.309561498928407    0.265275614706768  0.0000
  Ge     Ge        0.355412934003263    0.624853319404744    0.279793153240510  0.0000
  Ge     Ge        0.827946140157936    0.224565343225640    0.709164933809302  0.0000
  Ge     Ge        0.675890566763470    0.704487547554148    0.721203838368506  0.0000
  Ge     Ge        0.857453011984601    0.624161890625022    0.708496456254582  0.0000
  Ge     Ge        0.648402284773030    0.304926053621222    0.721232178664186  0.0000
  Ge     Ge        0.175314123811611    0.709132711461587    0.265211605972276  0.0000
  Ge     Ge        0.328471838215568    0.224701293196124    0.276675573287740  0.0000
  Ge     Ge        0.659311837206285    0.299817652776519    0.039024985689271  0.0000
  Ge     Ge        0.861773787459484    0.627289569700870    0.019263034063742  0.0000
  Ge     Ge        0.335791042663948    0.227657977277808    0.961159245479208  0.0000
  Ge     Ge        0.178922201972030    0.707017681163926    0.950088369251802  0.0000
  Ge     Ge        0.361064855825282    0.630140445922868    0.964605670785467  0.0000
  Ge     Ge        0.154031480474786    0.308690082142211    0.948939698856234  0.0000
  Ge     Ge        0.678173856594237    0.696979544410084    0.033938618692644  0.0000
  Si     Si        0.950032346432933    0.941408434591516    0.129618750904342  0.0000
  Si     Si        0.452103214264331    0.938583709167116    0.853834306626848  0.0000
  Si     Si        0.837532714182219    0.231675905566348    0.019118671987749  0.0000
  O1     O1        0.079705898882243    0.203854709321905    0.347495807614337  0.0000
  O1     O1        0.418232989561852    0.735801981848473    0.372056852958411  0.0000
  O1     O1        0.875511500302574    0.082983497418124    0.612995096480737  0.0000
  O1     O1        0.631237754542080    0.858950698937395    0.629974063213842  0.0000
  O1     O1        0.917329389315363    0.736706239915231    0.611907828171937  0.0000
  O1     O1        0.578624972822902    0.199797610727298    0.641552291559377  0.0000
  O1     O1        0.127315072234135    0.860508807531757    0.353088292493388  0.0000
  O1     O1        0.376499018422201    0.082280654827160    0.374300941091424  0.0000
  O1     O1        0.024347596885608    0.980859511364082    0.531319346120278  0.0000
  O1     O1        0.525931806863074    0.979223355219001    0.452705131397230  0.0000
  O3     O3        0.972851851601978    0.953889892560818    0.279798065046819  0.0000
  O1     O1        0.480086184044556    0.958640823716641    0.195854029655302  0.0000
  O1     O1        0.978831381888356    0.959910456416186    0.788946384758518  0.0000
  O3     O3        0.477407093598508    0.937888757344837    0.704583255040390  0.0000
  O1     O1        0.597566837278157    0.182780942168178    0.125459987945158  0.0000
  O3     O3        0.923491868921982    0.749850176534118    0.106871568080554  0.0000
  O3     O3        0.381595312616285    0.070634082719622    0.872274286296705  0.0000
  O1     O1        0.128134712830156    0.853043552428174    0.860483503709458  0.0000
  O3     O3        0.429224259968122    0.747379196494800    0.888800197698550  0.0000
  O1     O1        0.089140356624877    0.195370234712611    0.864238793805890  0.0000
  O1     O1        0.627513085397404    0.840877406404573    0.124423508268003  0.0000
  O2     O2        0.883762029443654    0.081699358261110    0.095009322847804  0.0000
  O3     O3        0.523878096667235    0.993442716945812    0.939438418763713  0.0000
  O3     O3        0.024871651536758    0.979223830217120    0.047625202041387  0.0000
  O1     O1        0.159961064539821    0.508799808123246    0.327402062824127  0.0000
  O1     O1        0.341796128216702    0.425994243588865    0.338948758389362  0.0000
  O1     O1        0.843843096546398    0.426065183187735    0.649238511365181  0.0000
  O1     O1        0.659015670433539    0.505156888224725    0.659429235033849  0.0000
  O1     O1        0.232821574861325    0.192397250996424    0.273305136443908  0.0000
  O1     O1        0.271087969862778    0.742027063881680    0.271918281283148  0.0000
  O1     O1        0.732962407644320    0.188997770505890    0.706898101107966  0.0000
  O1     O1        0.771750922133422    0.734811096736447    0.720911183414663  0.0000
  O1     O1        0.122779333740702    0.331603322103984    0.105751557626439  0.0000
  O1     O1        0.388049212039889    0.605431870427740    0.123223047562198  0.0000
  O3     O3        0.860647518929727    0.226166702880948    0.868723816103282  0.0000
  O1     O1        0.643643677815778    0.713616093409277    0.877850855071718  0.0000
  O1     O1        0.894292354479860    0.616134824063593    0.863962028455027  0.0000
  O1     O1        0.627175939832799    0.323220693538943    0.882302139830012  0.0000
  O1     O1        0.146099491556202    0.716704135196958    0.106775986360635  0.0000
  O1     O1        0.363419953120457    0.214851476962234    0.120722413635317  0.0000
  O1     O1        0.665588341501825    0.499054151212376    0.101277364140719  0.0000
  O3     O3        0.855645202857325    0.418059284159258    0.075257390879176  0.0000
  O1     O1        0.354386049338430    0.428192401971553    0.902368302902349  0.0000
  O1     O1        0.165634566702509    0.507088263260517    0.886135497373945  0.0000
  O3     O3        0.748596890416508    0.198475259544844    0.033072651199562  0.0000
  O1     O1        0.774094140072883    0.726378443152288    0.028742951876723  0.0000
  O1     O1        0.240016143408407    0.197442170069861    0.952231584263652  0.0000
  O1     O1        0.274961278209710    0.738160158729250    0.952121571218445  0.0000
