data_c00108.vasp
_audit_creation_method             Generated by GULP
_audit_author_name                 Salvador R. G. Balestra
_symmetry_space_group_name_H-M     'P 1             '
_symmetry_Int_Tables_number        1

loop_
_symmetry_equiv_pos_site_id
_symmetry_equiv_pos_as_xyz
_cell_length_a                       17.8439
_cell_length_b                        7.8611
_cell_length_c                       10.4144
_cell_angle_alpha                   89.9917
_cell_angle_beta                    90.6470
_cell_angle_gamma                   89.5525

loop_
_atom_site_label
_atom_site_type_symbol
_atom_site_fract_x
_atom_site_fract_y
_atom_site_fract_z
_atom_site_charge
  Ge     Ge        0.052090000000021    0.000000000000000    0.372269999999958  0.0000
  Ge     Ge        0.449862521237807    0.026267984200324    0.397718731538292  0.0000
  Ge     Ge        0.948906309956160    0.973210078702256    0.625173707960228  0.0000
  Ge     Ge        0.553149571409100    0.013445485898923    0.656266957368536  0.0000
  Ge     Ge        0.553344604244246    0.024329684080200    0.149333208939858  0.0000
  Ge     Ge        0.951198834941807    0.993655937007035    0.110459909549003  0.0000
  Ge     Ge        0.443723786405960    0.020070337604144    0.903014702942312  0.0000
  Ge     Ge        0.169891954846292    0.279851698210573    0.289538921241517  0.0000
  Ge     Ge        0.329083097969094    0.742857745631367    0.284456085130372  0.0000
  Ge     Ge        0.828726471264105    0.261736496821453    0.736076299908672  0.0000
  Ge     Ge        0.671026751546712    0.720699666921519    0.718751370871077  0.0000
  Ge     Ge        0.851417242150567    0.661812741250344    0.719462604410880  0.0000
  Ge     Ge        0.151766237102620    0.688457467360082    0.292059609649288  0.0000
  Ge     Ge        0.348096565470002    0.334809631016544    0.282058186378769  0.0000
  Ge     Ge        0.648865852247712    0.335490208892987    0.038623519302807  0.0000
  Ge     Ge        0.851901145337432    0.676939081652520    0.034132488566244  0.0000
  Ge     Ge        0.343378292437393    0.338377907725102    0.967724488700240  0.0000
  Ge     Ge        0.324211655188862    0.739874321668346    0.972981436604980  0.0000
  Ge     Ge        0.162028113073970    0.295007822883944    0.978154291918806  0.0000
  Ge     Ge        0.672751693547916    0.743184433276467    0.029680376140099  0.0000
  Ge     Ge        0.827187121124287    0.275206612214268    0.049036242498062  0.0000
  Si     Si        0.054173835734055    0.003776714488450    0.869295716068321  0.0000
  Si     Si        0.652738956634100    0.322124824658227    0.732243819783561  0.0000
  Si     Si        0.146755480942616    0.695431882366675    0.987381288479283  0.0000
  O1     O1        0.121276175747284    0.149650023630006    0.389440780341161  0.0000
  O1     O1        0.381243885199586    0.877666652147375    0.376016718169170  0.0000
  O1     O1        0.873759441719789    0.102669161875141    0.657056535661454  0.0000
  O1     O1        0.616732207939254    0.853220477594500    0.625126711187534  0.0000
  O1     O1        0.916219642799887    0.769687540370856    0.631232849358937  0.0000
  O3     O3        0.596674670222599    0.209818971585207    0.647390418589604  0.0000
  O1     O1        0.090030258854592    0.799046716769296    0.385075363174326  0.0000
  O1     O1        0.414789391440780    0.226199034095006    0.367910879047794  0.0000
  O1     O1        0.978860332215318    0.022921089530962    0.473629072900637  0.0000
  O1     O1        0.477630845855401    0.011463547682399    0.555668079444620  0.0000
  O1     O1        0.022034209039702    0.027444927764021    0.215596361420604  0.0000
  O1     O1        0.527983619914849    0.994610482363380    0.306009034743913  0.0000
  O3     O3        0.027493761207596    0.998439368088464    0.722234041629474  0.0000
  O1     O1        0.518832197511715    0.983661987954006    0.808559501173502  0.0000
  O1     O1        0.581399899008852    0.230555849040965    0.120452903384466  0.0000
  O1     O1        0.915650522210322    0.792184776440373    0.121086120687319  0.0000
  O1     O1        0.405509393622213    0.219475842220684    0.881228393322071  0.0000
  O2     O2        0.090738284099123    0.821868726334821    0.910296622498215  0.0000
  O1     O1        0.369671533519521    0.882069674591771    0.880004282266062  0.0000
  O3     O3        0.111984237840089    0.158277397162371    0.881392484724357  0.0000
  O1     O1        0.627251343151593    0.889886292143186    0.120790046966340  0.0000
  O1     O1        0.878612821592483    0.134981681549441    0.138158914323242  0.0000
  O1     O1        0.474857995913222    0.986056228856618    0.058334023920066  0.0000
  O3     O3        0.981566323619389    0.034587681057802    0.955276816485065  0.0000
  O1     O1        0.161438806074671    0.485572218214757    0.345946769358519  0.0000
  O1     O1        0.338364889002510    0.536910915430560    0.340128111640067  0.0000
  O1     O1        0.845898165031258    0.455888178067429    0.666481580260572  0.0000
  O3     O3        0.660285951900778    0.509108094634101    0.672915399108822  0.0000
  O1     O1        0.263544843739180    0.229951411043507    0.287931140305698  0.0000
  O1     O1        0.235587091452205    0.794445196302761    0.293185486746640  0.0000
  O3     O3        0.732945944147124    0.226380165413492    0.736218654341580  0.0000
  O1     O1        0.764772719318991    0.760498261560467    0.707320551933208  0.0000
  O1     O1        0.135327969296518    0.272235336283621    0.134124761969052  0.0000
  O1     O1        0.358035560359756    0.748653445921966    0.128079443588271  0.0000
  O1     O1        0.857200849323281    0.268944757719445    0.892728437097051  0.0000
  O1     O1        0.641505733552836    0.751080312321708    0.873348692260719  0.0000
  O1     O1        0.880386218212055    0.663494077416284    0.877308430188495  0.0000
  O3     O3        0.622888728554321    0.337170429108947    0.877235688418899  0.0000
  O3     O3        0.119437725488943    0.683011331570653    0.133270534227779  0.0000
  O1     O1        0.374888722039512    0.342181012057912    0.124380138052917  0.0000
  O1     O1        0.657099415987049    0.541376845388343    0.089026942293344  0.0000
  O1     O1        0.840958908080461    0.481155532203641    0.101624017942356  0.0000
  O1     O1        0.338571229034169    0.540870653018148    0.909344903316697  0.0000
  O3     O3        0.147898681678394    0.506063161710076    0.929099842484134  0.0000
  O1     O1        0.733421198620222    0.231656645958219    0.056910965455744  0.0000
  O1     O1        0.766913375992341    0.782923263678124    0.031135321666232  0.0000
  O1     O1        0.255410038452870    0.249161937583950    0.965348088239105  0.0000
  O3     O3        0.228765424640555    0.777372790359831    0.982571555705056  0.0000
