data_c00133.vasp
_audit_creation_method             Generated by GULP
_audit_author_name                 Salvador R. G. Balestra
_symmetry_space_group_name_H-M     'P 1             '
_symmetry_Int_Tables_number        1

loop_
_symmetry_equiv_pos_site_id
_symmetry_equiv_pos_as_xyz
_cell_length_a                       17.5751
_cell_length_b                        7.9291
_cell_length_c                       10.2374
_cell_angle_alpha                   91.7783
_cell_angle_beta                    90.7796
_cell_angle_gamma                   91.2361

loop_
_atom_site_label
_atom_site_type_symbol
_atom_site_fract_x
_atom_site_fract_y
_atom_site_fract_z
_atom_site_charge
  Ge     Ge        0.052090000000021    0.000000000000000    0.372269999999958  0.0000
  Ge     Ge        0.432601581831922    0.021314425514928    0.362033039346923  0.0000
  Ge     Ge        0.940650534645106    0.998956456185744    0.616358947905684  0.0000
  Ge     Ge        0.539157478362975    0.952960206035664    0.609562886546022  0.0000
  Ge     Ge        0.543703732303242    0.969662421948973    0.118470016105469  0.0000
  Ge     Ge        0.935680916466656    0.021345351359566    0.124751952601329  0.0000
  Ge     Ge        0.437046703180010    0.008735199260444    0.865203707858755  0.0000
  Ge     Ge        0.154652359719986    0.308245713957340    0.269690043439132  0.0000
  Ge     Ge        0.842795662677505    0.313914941575140    0.689091219057708  0.0000
  Ge     Ge        0.637386208684911    0.642072097478895    0.680793591902476  0.0000
  Ge     Ge        0.819347121309003    0.714133118304026    0.687903814092282  0.0000
  Ge     Ge        0.660552319832448    0.242288544632344    0.685381007438087  0.0000
  Ge     Ge        0.342129465223576    0.341201226429027    0.257096889963191  0.0000
  Ge     Ge        0.661734393178835    0.252408100631975    0.002428014994342  0.0000
  Ge     Ge        0.817099429277699    0.729200350825174    0.005285234058983  0.0000
  Ge     Ge        0.331747626494611    0.311450860447567    0.938367600496294  0.0000
  Ge     Ge        0.137589742608691    0.673369431827778    0.939789488558788  0.0000
  Ge     Ge        0.319340437292416    0.714900418195289    0.931930045493323  0.0000
  Ge     Ge        0.148633968534605    0.267031651578087    0.952197405146846  0.0000
  Ge     Ge        0.634767736159399    0.651922675112651    0.998524130345432  0.0000
  Ge     Ge        0.844227276043426    0.329729086315280    0.006118621200058  0.0000
  Si     Si        0.036167252142416    0.969068771006353    0.875036447956222  0.0000
  Si     Si        0.327867828279663    0.725342194600160    0.235308209648035  0.0000
  Si     Si        0.146496706669978    0.692237905463605    0.243245794593977  0.0000
  O1     O1        0.103868359747302    0.184758478221537    0.372356715245149  0.0000
  O3     O3        0.355901209637260    0.888067783670631    0.318553893307155  0.0000
  O1     O1        0.903787999477832    0.195233051596393    0.596412029550014  0.0000
  O1     O1        0.574687439040952    0.754326601149295    0.588840072820302  0.0000
  O1     O1        0.869951005582808    0.847817318931434    0.591893137914928  0.0000
  O1     O1        0.610701091342832    0.100421682981004    0.586263643883574  0.0000
  O3     O3        0.114611116722065    0.842451536111618    0.330545077764318  0.0000
  O1     O1        0.402896132488763    0.224355736264286    0.348106144187796  0.0000
  O1     O1        0.020063822373238    0.965625493841167    0.527404395295874  0.0000
  O1     O1        0.458092321125270    0.987075455036414    0.521544658679805  0.0000
  O1     O1        0.969741156048252    0.005233140157964    0.281652757975097  0.0000
  O1     O1        0.513940457588637    0.979722310479211    0.278188304029864  0.0000
  O3     O3        0.964263174376184    0.988572057802790    0.782251812634817  0.0000
  O1     O1        0.514773662741933    0.980563500700675    0.772143988665898  0.0000
  O1     O1        0.619427219276927    0.106853318931909    0.098826547290310  0.0000
  O1     O1        0.860281257576972    0.882743802085839    0.102557989096823  0.0000
  O1     O1        0.389122469561183    0.192875608683501    0.840772623884691  0.0000
  O3     O3        0.075776250619265    0.789960390331211    0.848078206193061  0.0000
  O1     O1        0.373019469507470    0.843032136093271    0.838438331536818  0.0000
  O3     O3        0.096368991601675    0.123061725497247    0.856997993214339  0.0000
  O1     O1        0.569413772609566    0.765482065215083    0.083786389344634  0.0000
  O1     O1        0.907715327803728    0.224057157790954    0.099920764219204  0.0000
  O1     O1        0.467400167280344    0.025758418205915    0.025841482067654  0.0000
  O3     O3        0.010873334799022    0.972471895244193    0.025464220705346  0.0000
  O3     O3        0.136137900169270    0.516531465130726    0.314390653092165  0.0000
  O3     O3        0.352438034050868    0.554602480793535    0.303240598204217  0.0000
  O1     O1        0.831829645902483    0.510184867258378    0.628863805723819  0.0000
  O1     O1        0.647811940885511    0.440207536281619    0.622773636521921  0.0000
  O1     O1        0.250136026689008    0.272489358915917    0.280591360320594  0.0000
  O2     O2        0.236448454688723    0.716010150861734    0.212915591058566  0.0000
  O1     O1        0.756283737190814    0.205996627810054    0.689365568400977  0.0000
  O1     O1        0.723500511558870    0.751185000269381    0.683286441034090  0.0000
  O1     O1        0.121565610661814    0.264747369253296    0.113146066385740  0.0000
  O3     O3        0.359483620136275    0.734564782266254    0.089144900372737  0.0000
  O1     O1        0.875510781846054    0.336602462279451    0.847935770984104  0.0000
  O1     O1        0.605078873437230    0.630681109069175    0.838184724922963  0.0000
  O1     O1        0.849967867281648    0.733724035265622    0.848209904081972  0.0000
  O1     O1        0.628308383198862    0.235175403340114    0.843661285343151  0.0000
  O3     O3        0.107103639030719    0.680323293219544    0.101308730997726  0.0000
  O1     O1        0.366577784237521    0.323517714782319    0.096596444496686  0.0000
  O1     O1        0.644522122679763    0.454948673849259    0.060287033857457  0.0000
  O1     O1        0.834061188683767    0.532252680589772    0.065517899362454  0.0000
  O1     O1        0.324714171491397    0.508645114741210    0.877533410416611  0.0000
  O1     O1        0.137342679501681    0.465730370662753    0.890644826511873  0.0000
  O1     O1        0.758018952533818    0.222826223510970    0.003897188621715  0.0000
  O1     O1        0.720862644242393    0.759541484394603    0.003087563457881  0.0000
  O1     O1        0.242743790906537    0.217901604410496    0.946758118518714  0.0000
  O1     O1        0.225588533346891    0.767505030842170    0.925144800696484  0.0000
