data_c00100.vasp
_audit_creation_method             Generated by GULP
_audit_author_name                 Salvador R. G. Balestra
_symmetry_space_group_name_H-M     'P 1             '
_symmetry_Int_Tables_number        1

loop_
_symmetry_equiv_pos_site_id
_symmetry_equiv_pos_as_xyz
_cell_length_a                       17.3569
_cell_length_b                        7.8452
_cell_length_c                       10.5244
_cell_angle_alpha                   93.2843
_cell_angle_beta                    89.6645
_cell_angle_gamma                   88.7263

loop_
_atom_site_label
_atom_site_type_symbol
_atom_site_fract_x
_atom_site_fract_y
_atom_site_fract_z
_atom_site_charge
  Ge     Ge        0.052090000000021    0.000000000000000    0.372269999999958  0.0000
  Ge     Ge        0.446485602700137    0.027932473645427    0.384868085141801  0.0000
  Ge     Ge        0.962972019642384    0.930539210775834    0.635542132456169  0.0000
  Ge     Ge        0.547198575786370    0.988328538656363    0.636144130544985  0.0000
  Ge     Ge        0.553316712232532    0.009884837196565    0.132962531040804  0.0000
  Ge     Ge        0.941229963942725    0.964792124961886    0.139582130519879  0.0000
  Ge     Ge        0.441269399647163    0.947822985862196    0.895361984104772  0.0000
  Ge     Ge        0.158632247986781    0.301641037143757    0.301294289141236  0.0000
  Ge     Ge        0.326211545232695    0.742212151203899    0.252351165399561  0.0000
  Ge     Ge        0.833873622979639    0.221459166446992    0.710155164167308  0.0000
  Ge     Ge        0.673504191139458    0.707408926543178    0.712061675050806  0.0000
  Ge     Ge        0.857169498386287    0.631019395288027    0.720602330755554  0.0000
  Ge     Ge        0.651495256414023    0.302556674652130    0.699464664931917  0.0000
  Ge     Ge        0.349380970310907    0.333575394668004    0.290213570388500  0.0000
  Ge     Ge        0.637932378860189    0.322982864313177    0.010085114588146  0.0000
  Ge     Ge        0.858320268066408    0.634003107382119    0.027374828137746  0.0000
  Ge     Ge        0.150551872577118    0.607645868407015    0.951447945712038  0.0000
  Ge     Ge        0.328561568902828    0.656523675397615    0.946392551632226  0.0000
  Ge     Ge        0.156638271781248    0.230167523771207    0.998580314578013  0.0000
  Ge     Ge        0.671660409883281    0.720544897679830    0.020047301115351  0.0000
  Ge     Ge        0.823272143003280    0.232204523819428    0.019166472230740  0.0000
  Si     Si        0.055612553688056    0.941208629479573    0.901320397686415  0.0000
  Si     Si        0.152732294290278    0.682767119357640    0.259214712855952  0.0000
  Si     Si        0.345287921977639    0.270839656265728    0.998058952435317  0.0000
  O1     O1        0.109725510519560    0.171496971423926    0.399044094217420  0.0000
  O1     O1        0.371795781501848    0.905469075847014    0.330257182290029  0.0000
  O1     O1        0.891581612334324    0.083276170824101    0.618097112930671  0.0000
  O1     O1        0.620713262138559    0.837287301724805    0.618860735880308  0.0000
  O1     O1        0.923035675353865    0.733999663964877    0.632143892896847  0.0000
  O1     O1        0.586042370861852    0.184484606580419    0.613535293328560  0.0000
  O3     O3        0.089067443415339    0.830976783720190    0.271503232122839  0.0000
  O1     O1        0.409952958171588    0.235059275257852    0.391648537226598  0.0000
  O1     O1        0.031514044438996    0.930415074819992    0.518916509186017  0.0000
  O1     O1        0.473254366579608    0.961273122142116    0.531064990322974  0.0000
  O1     O1        0.969689667543459    0.036976871542223    0.288061290963737  0.0000
  O1     O1        0.527081742245896    0.011391841988307    0.289928047715507  0.0000
  O3     O3        0.008080641753899    0.981356159283947    0.778689716135310  0.0000
  O1     O1        0.512879590258339    0.979714726873980    0.789084561837554  0.0000
  O1     O1        0.569053390104724    0.213435792867323    0.086794023860613  0.0000
  O1     O1        0.919346371746066    0.751769260079175    0.123846639251435  0.0000
  O3     O3        0.378954737069887    0.126530544766297    0.900547730551962  0.0000
  O3     O3        0.077811573889736    0.741594472580585    0.903678620645090  0.0000
  O1     O1        0.387198383554908    0.773067317575785    0.853693207559934  0.0000
  O3     O3        0.135516253291451    0.045649127276412    0.910473059896371  0.0000
  O1     O1        0.635547079144964    0.885449587086696    0.116072251390920  0.0000
  O1     O1        0.858227519076758    0.079037196240759    0.111772660692273  0.0000
  O1     O1        0.483066741634386    0.916852997820248    0.039889469995247  0.0000
  O3     O3        0.008426374133480    0.013915175832703    0.025310976322301  0.0000
  O3     O3        0.126798751511337    0.512823955104443    0.325741382752494  0.0000
  O1     O1        0.366244603074166    0.546887759711352    0.285540479760123  0.0000
  O1     O1        0.845281466835311    0.426196981539370    0.662200026877676  0.0000
  O1     O1        0.664662362654090    0.501069752693692    0.646727217621455  0.0000
  O1     O1        0.255192743545073    0.297224150730382    0.330049756507856  0.0000
  O3     O3        0.232685540681045    0.752106021995047    0.315074100173240  0.0000
  O1     O1        0.736877297326995    0.184552820197040    0.697874461215082  0.0000
  O1     O1        0.770870626787784    0.744912598876834    0.716581264894771  0.0000
  O1     O1        0.132485152468589    0.211966253264933    0.155031722361687  0.0000
  O1     O1        0.325927301804985    0.770207358962831    0.092210071403415  0.0000
  O1     O1        0.859345793358725    0.207479538363709    0.866463930743657  0.0000
  O1     O1        0.639045436246831    0.731002834956521    0.865976686329323  0.0000
  O1     O1        0.892041032741799    0.629389761765612    0.873035365414272  0.0000
  O1     O1        0.616217762891889    0.333592186665668    0.852575778102007  0.0000
  O3     O3        0.172079662458144    0.618856790932128    0.113222584006684  0.0000
  O3     O3        0.372317204286476    0.235177146989782    0.140641818966441  0.0000
  O1     O1        0.645730093815000    0.526784904904318    0.075763604148403  0.0000
  O1     O1        0.848662603718087    0.433483880512687    0.079190836446847  0.0000
  O3     O3        0.371616535096599    0.457423663103622    0.960709257180528  0.0000
  O1     O1        0.116780593735673    0.404663686583441    0.928350337977152  0.0000
  O1     O1        0.725336548377001    0.216057835025728    0.016529948003817  0.0000
  O1     O1        0.769554603001788    0.733412811165637    0.018784642673807  0.0000
  O3     O3        0.252666058771933    0.284199211412146    0.999551809083071  0.0000
  O1     O1        0.237683760942799    0.644910576037392    0.881594944201127  0.0000
