data_c00157.vasp
_audit_creation_method             Generated by GULP
_audit_author_name                 Salvador R. G. Balestra
_symmetry_space_group_name_H-M     'P 1             '
_symmetry_Int_Tables_number        1

loop_
_symmetry_equiv_pos_site_id
_symmetry_equiv_pos_as_xyz
_cell_length_a                       17.5825
_cell_length_b                        7.8642
_cell_length_c                       10.2509
_cell_angle_alpha                   89.5313
_cell_angle_beta                    90.0084
_cell_angle_gamma                   91.6687

loop_
_atom_site_label
_atom_site_type_symbol
_atom_site_fract_x
_atom_site_fract_y
_atom_site_fract_z
_atom_site_charge
  Ge     Ge        0.052090000000021    0.000000000000000    0.372269999999958  0.0000
  Ge     Ge        0.446438049120283    0.055677646505074    0.345539072606293  0.0000
  Ge     Ge        0.947708458846837    0.045355654692201    0.625399942507705  0.0000
  Ge     Ge        0.547366096371220    0.986409710534226    0.087610285413144  0.0000
  Ge     Ge        0.945217942473709    0.050504632643361    0.125873066604346  0.0000
  Ge     Ge        0.442971818786663    0.049596775836844    0.832746951823345  0.0000
  Ge     Ge        0.054550615921605    0.997936278432633    0.879962470108155  0.0000
  Ge     Ge        0.172403734611014    0.289543048161516    0.256036816820372  0.0000
  Ge     Ge        0.325121952710908    0.773440835792417    0.259123303237067  0.0000
  Ge     Ge        0.847395635122530    0.359866106485396    0.687928020396896  0.0000
  Ge     Ge        0.639768697566027    0.684250062738809    0.700830789416498  0.0000
  Ge     Ge        0.822514162224893    0.759384788035979    0.691881457600920  0.0000
  Ge     Ge        0.665334913205309    0.283314945074285    0.699062406394717  0.0000
  Ge     Ge        0.145550835265501    0.692375731406203    0.251086105702774  0.0000
  Ge     Ge        0.354118381192488    0.369757874300241    0.261091763286011  0.0000
  Ge     Ge        0.671462622109505    0.275798749652504    0.016844654420229  0.0000
  Ge     Ge        0.824298915108568    0.762351021121146    0.008817187836311  0.0000
  Ge     Ge        0.356225985236266    0.371252669930285    0.946891684182807  0.0000
  Ge     Ge        0.171373647496577    0.299983452729425    0.941906381495582  0.0000
  Ge     Ge        0.644016481514984    0.674875298482723    0.017798531259254  0.0000
  Ge     Ge        0.851779752050379    0.361231871371971    0.006743222755092  0.0000
  Si     Si        0.547869228090161    0.993325331108713    0.590602645610518  0.0000
  Si     Si        0.152862138801261    0.688822728754499    0.941993090616015  0.0000
  Si     Si        0.329998385419978    0.763720176893544    0.950602821072122  0.0000
  O1     O1        0.127339133299653    0.140522297964688    0.352497887463654  0.0000
  O1     O1        0.371696770268699    0.911179778142877    0.360859782434808  0.0000
  O1     O1        0.912860707065350    0.245841058268508    0.604293063636664  0.0000
  O3     O3        0.573131779282465    0.802308225217616    0.618523708779015  0.0000
  O1     O1        0.873018225591075    0.903467260863063    0.598590528853373  0.0000
  O3     O3        0.617011250646371    0.125755992833137    0.614790125192829  0.0000
  O1     O1        0.076491413540100    0.796898905566095    0.331917831117402  0.0000
  O1     O1        0.414572117249604    0.258132413483717    0.360012550691649  0.0000
  O1     O1        0.025804579814912    0.006495287527521    0.533879044505701  0.0000
  O3     O3        0.523894285039581    0.010230858171713    0.439501446188717  0.0000
  O1     O1        0.972423534372885    0.054108605826549    0.286651306307298  0.0000
  O1     O1        0.473395536294062    0.031142929997203    0.184537562507073  0.0000
  O1     O1        0.976014043525853    0.019720256015296    0.786184352855773  0.0000
  O3     O3        0.472350567880752    0.036497913280205    0.671822236889477  0.0000
  O1     O1        0.622257337885590    0.130484559318426    0.109538747099729  0.0000
  O1     O1        0.869671915779768    0.911145050471134    0.103521524965541  0.0000
  O1     O1        0.416626772348025    0.256347233528727    0.854160974030921  0.0000
  O3     O3        0.101136836958093    0.807792729344435    0.855231699520114  0.0000
  O3     O3        0.364896846270252    0.913702014165741    0.861782139615046  0.0000
  O1     O1        0.120458261660774    0.159318636146236    0.848598932540114  0.0000
  O1     O1        0.580930200341168    0.784868374597008    0.109378881998592  0.0000
  O1     O1        0.920873160974028    0.254755964591479    0.086874500043295  0.0000
  O1     O1        0.518562821982514    0.998137535965955    0.926413070381005  0.0000
  O1     O1        0.023806416450910    0.993387576794367    0.039141510935710  0.0000
  O1     O1        0.156567599981137    0.491688817569745    0.312609669291143  0.0000
  O1     O1        0.341013650568684    0.569922030627106    0.315864412009326  0.0000
  O1     O1        0.836157750971394    0.560166398890671    0.627345178981212  0.0000
  O1     O1        0.647691711096360    0.483327711022796    0.637467149421072  0.0000
  O1     O1        0.268296738111570    0.258295730807853    0.254865565041845  0.0000
  O1     O1        0.229754975600929    0.808538028407690    0.263999592980620  0.0000
  O1     O1        0.761027453764184    0.249648100331770    0.688578217913621  0.0000
  O1     O1        0.726425607786908    0.791191794482655    0.692735546273374  0.0000
  O1     O1        0.138759539311850    0.271986313898045    0.099054220240666  0.0000
  O3     O3        0.359004361517567    0.784343869790323    0.098939047169579  0.0000
  O1     O1        0.877670249468133    0.382490833264398    0.846286620894805  0.0000
  O1     O1        0.611826341629009    0.657059625061734    0.859356043408450  0.0000
  O1     O1        0.855429973623335    0.773747961016850    0.850066414553577  0.0000
  O1     O1        0.637574834318913    0.271944475209293    0.858948897371390  0.0000
  O3     O3        0.120567826744584    0.669970405406631    0.088470551174729  0.0000
  O1     O1        0.389124831994990    0.373758532885578    0.104129842340086  0.0000
  O1     O1        0.657789271186382    0.476614083319647    0.079425405440865  0.0000
  O1     O1        0.840148644885039    0.560265611404152    0.068773948348037  0.0000
  O3     O3        0.353122515116679    0.581762143028582    0.894483081004402  0.0000
  O3     O3        0.155768944185210    0.503366756585251    0.880821831712647  0.0000
  O1     O1        0.767319716419110    0.243607599313329    0.015400034311894  0.0000
  O1     O1        0.728253124749979    0.792640290072759    0.010463836213992  0.0000
  O1     O1        0.267514392088709    0.274152373711695    0.939529486334218  0.0000
  O2     O2        0.238190718997540    0.772041402905444    0.955707925676902  0.0000
