data_c00132.vasp
_audit_creation_method             Generated by GULP
_audit_author_name                 Salvador R. G. Balestra
_symmetry_space_group_name_H-M     'P 1             '
_symmetry_Int_Tables_number        1

loop_
_symmetry_equiv_pos_site_id
_symmetry_equiv_pos_as_xyz
_cell_length_a                       17.8861
_cell_length_b                        7.9051
_cell_length_c                       10.2907
_cell_angle_alpha                   89.9628
_cell_angle_beta                    91.1866
_cell_angle_gamma                   90.2685

loop_
_atom_site_label
_atom_site_type_symbol
_atom_site_fract_x
_atom_site_fract_y
_atom_site_fract_z
_atom_site_charge
  Ge     Ge        0.052090000000021    0.000000000000000    0.372269999999958  0.0000
  Ge     Ge        0.438707093313649    0.987930720286318    0.348685256641081  0.0000
  Ge     Ge        0.941081981292808    0.009919780032715    0.617100323588531  0.0000
  Ge     Ge        0.543530621832462    0.974285064067907    0.608565054908478  0.0000
  Ge     Ge        0.547792415739770    0.973873285510977    0.104292319870035  0.0000
  Ge     Ge        0.948209796942469    0.999042267897092    0.111427185482977  0.0000
  Ge     Ge        0.438288271389686    0.977747122719523    0.854905115121581  0.0000
  Ge     Ge        0.152085734486167    0.312853501235001    0.299410714288580  0.0000
  Ge     Ge        0.842989931729278    0.318895185159032    0.722316893119199  0.0000
  Ge     Ge        0.643264162145751    0.664661228610019    0.724746485238144  0.0000
  Ge     Ge        0.822077717556815    0.722538057788435    0.726580731858930  0.0000
  Ge     Ge        0.664013886778877    0.260848941607419    0.724025816846019  0.0000
  Ge     Ge        0.164385702013823    0.711172647454283    0.291903066019021  0.0000
  Ge     Ge        0.667969361475237    0.257850910133546    0.040534188979096  0.0000
  Ge     Ge        0.826293178660143    0.716568180487247    0.043724675440962  0.0000
  Ge     Ge        0.322540442209821    0.262850985328755    0.978676338700279  0.0000
  Ge     Ge        0.159033943038519    0.710227620804251    0.976964736659860  0.0000
  Ge     Ge        0.339129912809619    0.671526782295351    0.972424558741205  0.0000
  Ge     Ge        0.143095910205664    0.303527411988307    0.981238631271271  0.0000
  Ge     Ge        0.647597046421314    0.660052446596366    0.042848382051331  0.0000
  Ge     Ge        0.846942312579671    0.313515855967273    0.039267527657493  0.0000
  Si     Si        0.047024190104073    0.995514507773142    0.864639534343795  0.0000
  Si     Si        0.341763739848496    0.674777374001598    0.278359027452058  0.0000
  Si     Si        0.328906355320926    0.280952041516357    0.286607670256479  0.0000
  O1     O1        0.096140121087738    0.191359295778334    0.394427098358950  0.0000
  O3     O3        0.393137808079389    0.794044817166651    0.368694772148475  0.0000
  O1     O1        0.905465142857235    0.209050450661986    0.631062531091410  0.0000
  O1     O1        0.577331168957487    0.774783290136235    0.637759690726905  0.0000
  O1     O1        0.871227833280428    0.865034597460101    0.636923619751807  0.0000
  O1     O1        0.613546958147051    0.119981403260920    0.632175008102268  0.0000
  O1     O1        0.120407810530284    0.848581529280157    0.391461906841621  0.0000
  O3     O3        0.378877164195282    0.157647057090392    0.375651858015144  0.0000
  O1     O1        0.974525002037324    0.980376271841062    0.462905145620206  0.0000
  O1     O1        0.515378461517196    0.992872734526772    0.447983501988517  0.0000
  O1     O1        0.023504760034406    0.976979260496650    0.211664067086986  0.0000
  O1     O1        0.469992102190661    0.004846007477354    0.192752948495700  0.0000
  O3     O3        0.019645735607809    0.984073769136494    0.715810126706482  0.0000
  O1     O1        0.464452448345578    0.005668269445927    0.696824151910267  0.0000
  O1     O1        0.617830343769955    0.120626224103144    0.132583196417679  0.0000
  O1     O1        0.878530907987681    0.852277598688071    0.137212086493958  0.0000
  O1     O1        0.371450296684665    0.125927519231848    0.887191993091750  0.0000
  O3     O3        0.110602473992637    0.855491727245506    0.884413768797196  0.0000
  O1     O1        0.400728984502199    0.779512888558207    0.879522564525767  0.0000
  O3     O3        0.078209436463798    0.182709349683270    0.897150971870458  0.0000
  O1     O1        0.585455057498389    0.776530480830679    0.129370286609380  0.0000
  O1     O1        0.910546623528380    0.197330562107770    0.127234549235552  0.0000
  O1     O1        0.519383226555214    0.999502821906943    0.944245177551525  0.0000
  O3     O3        0.975681441719925    0.960908492351443    0.952908030024818  0.0000
  O1     O1        0.151727171859915    0.513945989791799    0.357499970986082  0.0000
  O2     O2        0.338855933237129    0.479315514582859    0.327618977622378  0.0000
  O1     O1        0.833482640885346    0.521093312223264    0.665454733277299  0.0000
  O1     O1        0.651912341487824    0.463523293802042    0.665300649742687  0.0000
  O3     O3        0.242308515689535    0.232266281766860    0.297946871896245  0.0000
  O3     O3        0.258865399103409    0.751551447854022    0.277674337159728  0.0000
  O1     O1        0.757820463759582    0.216352493896947    0.719171793408984  0.0000
  O1     O1        0.728333773924200    0.767977382948371    0.720147084750258  0.0000
  O1     O1        0.118430032382140    0.310354019094901    0.141601311387311  0.0000
  O3     O3        0.372305144842297    0.679820039774925    0.132673047284683  0.0000
  O1     O1        0.875164251356360    0.323207771931637    0.880764075236494  0.0000
  O1     O1        0.616398544564205    0.652048607499701    0.883723487063428  0.0000
  O1     O1        0.853741348218178    0.724780617406668    0.884558480642749  0.0000
  O1     O1        0.635381647231864    0.253699291917080    0.881979338878900  0.0000
  O1     O1        0.129835929998010    0.717230498158852    0.134554621954153  0.0000
  O3     O3        0.354179624905477    0.257067797572554    0.138837618928960  0.0000
  O1     O1        0.657343671905041    0.459670622604591    0.101783486520880  0.0000
  O1     O1        0.838870103705674    0.512862319593092    0.100669916025520  0.0000
  O1     O1        0.333734771535531    0.465785788242005    0.922111880786202  0.0000
  O1     O1        0.145172370371651    0.506286304896117    0.921524427370132  0.0000
  O1     O1        0.761450052653181    0.211596666621804    0.041563681768392  0.0000
  O1     O1        0.732919763717539    0.762772427500892    0.047187380860268  0.0000
  O1     O1        0.229462266699208    0.212088847676779    0.971142856344446  0.0000
  O1     O1        0.251917475540409    0.760428489874504    0.965462046488262  0.0000
