data_c00175.vasp
_audit_creation_method             Generated by GULP
_audit_author_name                 Salvador R. G. Balestra
_symmetry_space_group_name_H-M     'P 1             '
_symmetry_Int_Tables_number        1

loop_
_symmetry_equiv_pos_site_id
_symmetry_equiv_pos_as_xyz
_cell_length_a                       17.6416
_cell_length_b                        7.8484
_cell_length_c                       10.1775
_cell_angle_alpha                   90.4008
_cell_angle_beta                    89.9394
_cell_angle_gamma                   91.4961

loop_
_atom_site_label
_atom_site_type_symbol
_atom_site_fract_x
_atom_site_fract_y
_atom_site_fract_z
_atom_site_charge
  Ge     Ge        0.052090000000021    0.000000000000000    0.372269999999958  0.0000
  Ge     Ge        0.441566920245361    0.055389040261721    0.347088076471129  0.0000
  Ge     Ge        0.942701409281554    0.039081713377535    0.619871852991971  0.0000
  Ge     Ge        0.545169690524967    0.985283193851980    0.091071879386870  0.0000
  Ge     Ge        0.941424945245650    0.045924274648367    0.128314362216560  0.0000
  Ge     Ge        0.441749239256982    0.040813054640400    0.835075100730754  0.0000
  Ge     Ge        0.046663853588693    0.987835898325034    0.875770398340157  0.0000
  Ge     Ge        0.167455559611262    0.297909957085686    0.262536452593711  0.0000
  Ge     Ge        0.320207569338389    0.771658974301329    0.261132260549590  0.0000
  Ge     Ge        0.843604721681432    0.353296637238613    0.686503942004764  0.0000
  Ge     Ge        0.636837775177074    0.679310089955261    0.700606876889531  0.0000
  Ge     Ge        0.818756227610540    0.754465833681605    0.692097756933297  0.0000
  Ge     Ge        0.662317313976157    0.277116147175969    0.697869143485176  0.0000
  Ge     Ge        0.349883590132783    0.371546484917568    0.270009555727487  0.0000
  Ge     Ge        0.668349474819652    0.271933659529998    0.017454687122838  0.0000
  Ge     Ge        0.820640373273373    0.758283590704762    0.010611086387870  0.0000
  Ge     Ge        0.350719038971028    0.358681546647315    0.954209050536328  0.0000
  Ge     Ge        0.148786140413339    0.679519545546761    0.937906654239053  0.0000
  Ge     Ge        0.168827350052890    0.279228596538161    0.947120509923149  0.0000
  Ge     Ge        0.641018342810515    0.671997991450906    0.019166084738384  0.0000
  Ge     Ge        0.848150661517452    0.355107003733815    0.007164512863013  0.0000
  Si     Si        0.545237326930753    0.987328221562934    0.588799286200053  0.0000
  Si     Si        0.144244638058160    0.692113475437687    0.251810520914549  0.0000
  Si     Si        0.324602450229724    0.757185128710647    0.948468119220705  0.0000
  O1     O1        0.121048079394723    0.156501856144951    0.363186421859137  0.0000
  O1     O1        0.363800242872290    0.919041723874054    0.359853106219852  0.0000
  O1     O1        0.907519983648728    0.238884913310577    0.597113919095959  0.0000
  O3     O3        0.570649262798085    0.796469926125944    0.617084998606943  0.0000
  O1     O1        0.868728335935654    0.895052482358542    0.596034623319723  0.0000
  O3     O3        0.614547747931556    0.119951828966421    0.609979985740415  0.0000
  O3     O3        0.081732155128336    0.799424315457238    0.327382716681690  0.0000
  O1     O1        0.410726776957876    0.258631355057875    0.366908266856507  0.0000
  O1     O1        0.022419850734003    0.993987435130124    0.533757648879432  0.0000
  O3     O3        0.518988750152412    0.001094092530167    0.437574727430543  0.0000
  O1     O1        0.970973533882405    0.047705954078522    0.289050110120236  0.0000
  O1     O1        0.469309121057736    0.029932337560417    0.185032915013239  0.0000
  O1     O1        0.969414185447137    0.026200342414662    0.783725412339136  0.0000
  O3     O3        0.470944049227080    0.034029164639321    0.672347793422730  0.0000
  O1     O1        0.619469692754640    0.130292813223558    0.113112355113423  0.0000
  O1     O1        0.865498349349836    0.907329220034347    0.107719468982147  0.0000
  O1     O1        0.412167101910652    0.245652758594880    0.860244421181831  0.0000
  O1     O1        0.085269642369239    0.790193588889041    0.849668241166377  0.0000
  O3     O3        0.368468435175385    0.893392805314526    0.858839618832400  0.0000
  O1     O1        0.119484866235393    0.135365055201266    0.852772197344912  0.0000
  O1     O1        0.578553705532926    0.783644750739903    0.113040568734842  0.0000
  O1     O1        0.916264538608525    0.250141086687488    0.090319157568720  0.0000
  O1     O1        0.518377510617997    0.996173060156461    0.927876024099460  0.0000
  O1     O1        0.018271000937785    0.987199710935839    0.037760102982999  0.0000
  O3     O3        0.153942041843799    0.507025368252365    0.315413284553615  0.0000
  O1     O1        0.340746176541183    0.575080292815901    0.324462544278207  0.0000
  O1     O1        0.831785130387234    0.553240426145080    0.627244930591247  0.0000
  O1     O1        0.645181754671070    0.477088972889961    0.636489626065085  0.0000
  O1     O1        0.262962306250985    0.266126074247417    0.265962386312126  0.0000
  O3     O3        0.223518026248160    0.799741482839841    0.260382289305656  0.0000
  O1     O1        0.757689781806503    0.242762890968887    0.688644375532128  0.0000
  O1     O1        0.722981287805033    0.787036345257063    0.694185066229540  0.0000
  O1     O1        0.134281939183418    0.266034890847682    0.105799768072599  0.0000
  O3     O3        0.352094642462802    0.777051645128250    0.099283491281891  0.0000
  O1     O1        0.874842779511521    0.374794757642924    0.845842786896287  0.0000
  O1     O1        0.608266702648084    0.653354489652337    0.859837507176793  0.0000
  O1     O1        0.852485856864883    0.770415580938159    0.850899404315081  0.0000
  O1     O1        0.634146945701368    0.266425520851188    0.858694130030898  0.0000
  O3     O3        0.121000129857059    0.661235234533795    0.101302175821963  0.0000
  O1     O1        0.384522305993344    0.370644570567002    0.111633983951331  0.0000
  O1     O1        0.655087308940081    0.474541809735634    0.080657293214675  0.0000
  O1     O1        0.836115138422508    0.556091522625161    0.069200176427423  0.0000
  O3     O3        0.339576503332191    0.565011482021319    0.898556024718604  0.0000
  O1     O1        0.155113447677804    0.477581112783622    0.879750046905855  0.0000
  O1     O1        0.763831452937587    0.238279591562685    0.014593808137007  0.0000
  O1     O1        0.724931485019582    0.789310851902838    0.010765833602131  0.0000
  O1     O1        0.264588002977135    0.250955371690616    0.952348916559956  0.0000
  O3     O3        0.235398826099308    0.789620452183142    0.939210297892834  0.0000
