data_c00234.vasp
_audit_creation_method             Generated by GULP
_audit_author_name                 Salvador R. G. Balestra
_symmetry_space_group_name_H-M     'P 1             '
_symmetry_Int_Tables_number        1

loop_
_symmetry_equiv_pos_site_id
_symmetry_equiv_pos_as_xyz
_cell_length_a                       17.5443
_cell_length_b                        7.8642
_cell_length_c                       10.2371
_cell_angle_alpha                   90.6974
_cell_angle_beta                    90.3641
_cell_angle_gamma                   88.0822

loop_
_atom_site_label
_atom_site_type_symbol
_atom_site_fract_x
_atom_site_fract_y
_atom_site_fract_z
_atom_site_charge
  Ge     Ge        0.052090000000021    0.000000000000000    0.372269999999958  0.0000
  Ge     Ge        0.447126423147010    0.953900425973185    0.433485637505591  0.0000
  Ge     Ge        0.945421009088428    0.944829223017764    0.623514993192049  0.0000
  Ge     Ge        0.557387523427928    0.006704199019885    0.187034097152367  0.0000
  Ge     Ge        0.452441148733772    0.940825488991872    0.929979935916872  0.0000
  Ge     Ge        0.052890913753505    0.006005918631828    0.876325431765436  0.0000
  Ge     Ge        0.144048781756522    0.322508747883125    0.308054922071173  0.0000
  Ge     Ge        0.353044260137518    0.639185379783305    0.316496500704166  0.0000
  Ge     Ge        0.825569398916676    0.237602495807575    0.740253741293599  0.0000
  Ge     Ge        0.667258685120379    0.715827677183399    0.751489714338522  0.0000
  Ge     Ge        0.850183711703511    0.637725088495199    0.740597992044833  0.0000
  Ge     Ge        0.643210591587397    0.314424929003106    0.750721038864576  0.0000
  Ge     Ge        0.327284807809452    0.240489717690911    0.315299704768500  0.0000
  Ge     Ge        0.650688363419683    0.314822974704415    0.067131855427186  0.0000
  Ge     Ge        0.858006898947605    0.636286376404773    0.056932837985819  0.0000
  Ge     Ge        0.327785275476430    0.230507904304342    0.999921646875888  0.0000
  Ge     Ge        0.174906393146493    0.717745436207223    0.998272096674490  0.0000
  Ge     Ge        0.354934755108231    0.631226288028117    0.997010886357750  0.0000
  Ge     Ge        0.145504490571480    0.316537703026387    0.994260673169761  0.0000
  Ge     Ge        0.675858114192530    0.716288222166077    0.067859456215351  0.0000
  Ge     Ge        0.833662505002578    0.236516658466080    0.056285481053246  0.0000
  Si     Si        0.550345812749412    0.003142350511274    0.680851472326200  0.0000
  Si     Si        0.951553997110543    0.946933674661870    0.121664311454260  0.0000
  Si     Si        0.173634571061430    0.712708235401310    0.310363812228917  0.0000
  O1     O1        0.083885766347611    0.201969609786256    0.397944232542220  0.0000
  O1     O1        0.418000124380477    0.750981328730243    0.404226188236198  0.0000
  O1     O1        0.870562827488781    0.087772788553746    0.644025560884049  0.0000
  O3     O3        0.617929173077609    0.862620009278861    0.655738790496498  0.0000
  O1     O1        0.914687787493053    0.743987438295777    0.650792624091432  0.0000
  O3     O3        0.580285075059702    0.191840630454515    0.661270081783106  0.0000
  O3     O3        0.127446490141758    0.853884467486128    0.394432243969211  0.0000
  O1     O1        0.370267072086357    0.089629107135698    0.411846410017975  0.0000
  O1     O1        0.975613828069439    0.955846588041038    0.464160798243028  0.0000
  O3     O3        0.476139270949409    0.967529918790957    0.596140711511511  0.0000
  O3     O3        0.024322274608469    0.985624547750580    0.208576480668093  0.0000
  O1     O1        0.525192263940911    0.004609825622585    0.344912140960426  0.0000
  O1     O1        0.023838847057718    0.990944611638455    0.716809687081668  0.0000
  O3     O3        0.528480931253619    0.984835672909221    0.833696078159486  0.0000
  O1     O1        0.586349663954440    0.209117838685918    0.156848627458587  0.0000
  O3     O3        0.921611071128462    0.758272883693353    0.144670562280355  0.0000
  O1     O1        0.377487598666851    0.084361941225547    0.907159336221313  0.0000
  O1     O1        0.128423016244383    0.867921366820283    0.907097821010599  0.0000
  O1     O1        0.420158567976539    0.738337268044498    0.908533055054573  0.0000
  O1     O1        0.080879543573720    0.210812736874227    0.900822038914845  0.0000
  O1     O1        0.633625629157821    0.866064448193543    0.167476258438346  0.0000
  O3     O3        0.883499761264774    0.086366451624196    0.147269005829733  0.0000
  O1     O1        0.482296350010329    0.951698800330240    0.090340704508843  0.0000
  O3     O3        0.975059826587498    0.956771177010064    0.969463490566605  0.0000
  O3     O3        0.156148536963996    0.526635004992977    0.367294299546506  0.0000
  O1     O1        0.345536934021713    0.439373361866127    0.377966433392718  0.0000
  O1     O1        0.837292413759771    0.437571510773031    0.677904396212488  0.0000
  O1     O1        0.650298409488929    0.514369563171486    0.689781015636397  0.0000
  O1     O1        0.231028827299134    0.215468853376802    0.307698716220772  0.0000
  O3     O3        0.263589995993733    0.742574972224794    0.317874233625076  0.0000
  O1     O1        0.729741910330311    0.205129781855077    0.748442870148103  0.0000
  O1     O1        0.763366261472180    0.747715148046908    0.744516707680412  0.0000
  O1     O1        0.110794991539864    0.330831692667046    0.150707618162600  0.0000
  O1     O1        0.383195523329504    0.619274847201438    0.158293005525885  0.0000
  O1     O1        0.862531815294968    0.227221225431894    0.896127484740942  0.0000
  O1     O1        0.638547226166353    0.727999670844251    0.911920559579943  0.0000
  O1     O1        0.885016605153466    0.614160127498389    0.896678840677618  0.0000
  O1     O1        0.615608880172015    0.334674778348331    0.910635843476893  0.0000
  O3     O3        0.145969753619433    0.719769436217385    0.159964224980756  0.0000
  O1     O1        0.361501095131683    0.220495040024565    0.158468861390105  0.0000
  O1     O1        0.663017589595809    0.515684341684387    0.128522941722279  0.0000
  O1     O1        0.850998047458317    0.437038046492427    0.119496560666771  0.0000
  O1     O1        0.342791402650985    0.430719559496355    0.938428211152347  0.0000
  O1     O1        0.158103637949643    0.517006116236249    0.936673713196373  0.0000
  O1     O1        0.737598602428100    0.205276582999534    0.063416565421552  0.0000
  O1     O1        0.771777774352297    0.746179764602252    0.058269032858550  0.0000
  O1     O1        0.231430082056721    0.202711647066284    0.997109581646418  0.0000
  O1     O1        0.270555836176464    0.750229005394867    0.993291134252927  0.0000
