data_c00243.vasp
_audit_creation_method             Generated by GULP
_audit_author_name                 Salvador R. G. Balestra
_symmetry_space_group_name_H-M     'P 1             '
_symmetry_Int_Tables_number        1

loop_
_symmetry_equiv_pos_site_id
_symmetry_equiv_pos_as_xyz
_cell_length_a                       17.5509
_cell_length_b                        7.8566
_cell_length_c                       10.1944
_cell_angle_alpha                   89.6380
_cell_angle_beta                    90.5470
_cell_angle_gamma                   88.0926

loop_
_atom_site_label
_atom_site_type_symbol
_atom_site_fract_x
_atom_site_fract_y
_atom_site_fract_z
_atom_site_charge
  Ge     Ge        0.052090000000021    0.000000000000000    0.372269999999958  0.0000
  Ge     Ge        0.443268484032568    0.949479293444935    0.358770493971517  0.0000
  Ge     Ge        0.941199363429157    0.950800379202820    0.616012996617301  0.0000
  Ge     Ge        0.940042535166604    0.947465428488612    0.126122725126772  0.0000
  Ge     Ge        0.448358037690286    0.947536053108594    0.863469969383584  0.0000
  Ge     Ge        0.042876249290714    0.012692539150544    0.872674082495348  0.0000
  Ge     Ge        0.145432850410361    0.314102064591089    0.253229373865825  0.0000
  Ge     Ge        0.355108711052976    0.628059381217425    0.249999003859610  0.0000
  Ge     Ge        0.819019403760541    0.238862807948185    0.689702785283018  0.0000
  Ge     Ge        0.659795852614662    0.718940743603248    0.687191083223194  0.0000
  Ge     Ge        0.841808004032608    0.640432744541098    0.684774930324347  0.0000
  Ge     Ge        0.636702784107160    0.317076523891533    0.686610342056449  0.0000
  Ge     Ge        0.171834243064036    0.711389752317495    0.257303479181735  0.0000
  Ge     Ge        0.636081802246533    0.317276250604056    0.002863054264441  0.0000
  Ge     Ge        0.846489489238288    0.637709336371276    0.004276129947408  0.0000
  Ge     Ge        0.322622076243496    0.236406445508423    0.936107466236147  0.0000
  Ge     Ge        0.168891819315555    0.723075163411538    0.940283691253516  0.0000
  Ge     Ge        0.350337876788752    0.637473908433957    0.934230548775945  0.0000
  Ge     Ge        0.142917706001430    0.322278894760654    0.932364956468049  0.0000
  Ge     Ge        0.663366589104475    0.718089758550767    0.006202020900999  0.0000
  Ge     Ge        0.819457640681647    0.236758255243172    0.007038467398262  0.0000
  Si     Si        0.544836394790554    0.008845585281412    0.608819104597778  0.0000
  Si     Si        0.549329694402380    0.005770763349352    0.117468839613457  0.0000
  Si     Si        0.324746531624772    0.236577625560792    0.248435782150385  0.0000
  O1     O1        0.080522743975123    0.202291744084874    0.339116185174060  0.0000
  O1     O1        0.417556773070393    0.742646871740692    0.342328270882074  0.0000
  O1     O1        0.868460139179296    0.100439004027655    0.591118300171577  0.0000
  O3     O3        0.611028272655508    0.864923676858972    0.587166726769602  0.0000
  O1     O1        0.904999943100101    0.752777103245267    0.593612660102528  0.0000
  O3     O3        0.576582556438043    0.196552561324604    0.590791883517742  0.0000
  O1     O1        0.128444693406620    0.862542488980774    0.353275127315344  0.0000
  O3     O3        0.366308225156530    0.087133602834878    0.331692017803394  0.0000
  O1     O1        0.022267800770048    0.989688839389666    0.532995275104700  0.0000
  O3     O3        0.471484609357812    0.977901966128254    0.520563050387413  0.0000
  O1     O1        0.971613977391693    0.947814007722377    0.286259754768241  0.0000
  O3     O3        0.521611847491898    0.996413127410029    0.266440418169483  0.0000
  O1     O1        0.965771715943599    0.965919457427822    0.780852036504683  0.0000
  O3     O3        0.522054459189128    0.990211792596267    0.762143480343707  0.0000
  O3     O3        0.571298350495115    0.199181582262261    0.087425218209289  0.0000
  O1     O1        0.913832479710607    0.743885714939871    0.089880250695233  0.0000
  O1     O1        0.374488279422389    0.095178362878181    0.845393468168700  0.0000
  O1     O1        0.117657079398441    0.868392344461729    0.848637454828239  0.0000
  O1     O1        0.412476876043055    0.749146622232394    0.840812000993246  0.0000
  O1     O1        0.076352591053737    0.213821252873946    0.845798601338935  0.0000
  O3     O3        0.621665437721794    0.877683581088011    0.098523018839994  0.0000
  O1     O1        0.862636287324198    0.084782037343239    0.104981693111779  0.0000
  O3     O3        0.479939560075076    0.950743460710337    0.025075958892331  0.0000
  O1     O1        0.015967437406700    0.007867799168316    0.035194812605763  0.0000
  O1     O1        0.153129975891089    0.512609299649522    0.318876901375667  0.0000
  O3     O3        0.343863763145515    0.421491182587146    0.306784067643378  0.0000
  O1     O1        0.830162405869551    0.440843913224525    0.625778533876549  0.0000
  O1     O1        0.645791626421644    0.517813211922990    0.624763747247369  0.0000
  O3     O3        0.234468467975024    0.209996477411426    0.252811946528349  0.0000
  O1     O1        0.268218948652487    0.734746273581809    0.254639117780560  0.0000
  O1     O1        0.723027119016329    0.206308653561602    0.692919417715428  0.0000
  O1     O1        0.755631059612289    0.753470163114318    0.686359125285672  0.0000
  O1     O1        0.115746223310478    0.338187213550209    0.093893712194539  0.0000
  O1     O1        0.386159476453903    0.620998552813579    0.091973191743691  0.0000
  O1     O1        0.852976156335707    0.223495078842015    0.848995814604876  0.0000
  O1     O1        0.629575263160368    0.727833462649810    0.847305335661385  0.0000
  O1     O1        0.874307659389979    0.620126622130478    0.843903292798983  0.0000
  O1     O1        0.603863152739374    0.339629869354015    0.843869999975968  0.0000
  O1     O1        0.136780852289471    0.731829834567819    0.099655050500362  0.0000
  O3     O3        0.352891003943602    0.229202914623376    0.098827812365033  0.0000
  O1     O1        0.644935948603465    0.517667432170634    0.066710228676447  0.0000
  O1     O1        0.836777109141682    0.436674407297780    0.066908956391570  0.0000
  O1     O1        0.336422311334392    0.438917669368188    0.875148363983847  0.0000
  O1     O1        0.154890953156301    0.523192274935343    0.874885474126027  0.0000
  O1     O1        0.722893858607012    0.210927693101876    0.003138828880100  0.0000
  O1     O1        0.759594981585942    0.746415621876473    0.008039455340400  0.0000
  O1     O1        0.227275544476766    0.202077426553064    0.928016161810566  0.0000
  O1     O1        0.265027536839746    0.753557512352191    0.940687835069448  0.0000
