data_c00236.vasp
_audit_creation_method             Generated by GULP
_audit_author_name                 Salvador R. G. Balestra
_symmetry_space_group_name_H-M     'P 1             '
_symmetry_Int_Tables_number        1

loop_
_symmetry_equiv_pos_site_id
_symmetry_equiv_pos_as_xyz
_cell_length_a                       17.5814
_cell_length_b                        7.8395
_cell_length_c                       10.2272
_cell_angle_alpha                   89.5981
_cell_angle_beta                    90.7258
_cell_angle_gamma                   88.5964

loop_
_atom_site_label
_atom_site_type_symbol
_atom_site_fract_x
_atom_site_fract_y
_atom_site_fract_z
_atom_site_charge
  Ge     Ge        0.052090000000021    0.000000000000000    0.372269999999958  0.0000
  Ge     Ge        0.452699143466328    0.950467779673162    0.426418040880546  0.0000
  Ge     Ge        0.943885323872130    0.960818334615501    0.619635674238161  0.0000
  Ge     Ge        0.562266156769482    0.001423747734218    0.180026907978166  0.0000
  Ge     Ge        0.457012810055085    0.943429501318774    0.922115153522598  0.0000
  Ge     Ge        0.059051388141042    0.006701507163394    0.864542044691478  0.0000
  Ge     Ge        0.148874306987256    0.317180841782581    0.303665216990411  0.0000
  Ge     Ge        0.359151847990846    0.637623198087022    0.307707735846790  0.0000
  Ge     Ge        0.830664374811701    0.258762666081637    0.729798411535552  0.0000
  Ge     Ge        0.671772928619452    0.725064501692670    0.747603879530205  0.0000
  Ge     Ge        0.648007119344301    0.324899879764883    0.739263482032971  0.0000
  Ge     Ge        0.177707441521707    0.718957523050931    0.302731545837495  0.0000
  Ge     Ge        0.330237644662909    0.234634678193444    0.309647922539024  0.0000
  Ge     Ge        0.658096229986237    0.310276699296206    0.056457048634498  0.0000
  Ge     Ge        0.860931335696391    0.636821868471861    0.051785565293264  0.0000
  Ge     Ge        0.332273148110219    0.228857111761925    0.993354749878564  0.0000
  Ge     Ge        0.179874293912735    0.720075003748059    0.984889889077781  0.0000
  Ge     Ge        0.359602014319933    0.631157744828651    0.989183788855535  0.0000
  Ge     Ge        0.151793710062568    0.316328181717225    0.986578204253898  0.0000
  Ge     Ge        0.681221313675257    0.714535527215352    0.065122884540452  0.0000
  Ge     Ge        0.840039496715849    0.232509246421732    0.044261090468591  0.0000
  Si     Si        0.555272724289236    0.011636836739518    0.674060195348911  0.0000
  Si     Si        0.958816005557775    0.942843142179195    0.112888369137976  0.0000
  Si     Si        0.850124115262977    0.653212847993106    0.740987082221164  0.0000
  O1     O1        0.084199041866568    0.203396487737046    0.391295748815186  0.0000
  O1     O1        0.426062424407883    0.745645396309984    0.395899242729093  0.0000
  O1     O1        0.876754789528736    0.121831445776077    0.626892614934154  0.0000
  O3     O3        0.625563732095186    0.878688327911832    0.652655279191363  0.0000
  O3     O3        0.908591413645095    0.764106213882272    0.660288996788618  0.0000
  O3     O3        0.583666722158786    0.202777957206497    0.652232253181294  0.0000
  O1     O1        0.127586400416479    0.859603742509430    0.397274275981400  0.0000
  O1     O1        0.375592604081358    0.085396699367623    0.407139840985337  0.0000
  O1     O1        0.974113671724293    0.953514794107718    0.460049472090619  0.0000
  O3     O3        0.482238720219138    0.966777496077405    0.589287719100112  0.0000
  O3     O3        0.028874931914131    0.980038938409954    0.206058390008865  0.0000
  O1     O1        0.530080060056268    0.005719338925041    0.337538803613068  0.0000
  O1     O1        0.025316962841361    0.001255637027139    0.706799089947104  0.0000
  O3     O3        0.533101711640989    0.990806329712370    0.826829470673164  0.0000
  O1     O1        0.593611817403787    0.202325780218452    0.145372656057285  0.0000
  O3     O3        0.928459433702549    0.752043461470389    0.134624979157841  0.0000
  O1     O1        0.382462675711554    0.087554707715589    0.900247628397867  0.0000
  O1     O1        0.134625261713855    0.866519780705436    0.884780778580363  0.0000
  O1     O1        0.424233861990781    0.741016045853001    0.899295961665611  0.0000
  O1     O1        0.086536925114337    0.211296824350727    0.894256373690498  0.0000
  O1     O1        0.636170855131420    0.855560498866441    0.165455106035432  0.0000
  O3     O3        0.890537168528299    0.081370483838886    0.134717681113056  0.0000
  O1     O1        0.486605291954801    0.949630144569284    0.083166154294719  0.0000
  O3     O3        0.983785613450201    0.952758291588025    0.962071605372765  0.0000
  O1     O1        0.162062376913973    0.516405067932364    0.363667670576796  0.0000
  O1     O1        0.345962783658965    0.436436397323173    0.368917842432298  0.0000
  O3     O3        0.839453867393609    0.468840595705267    0.676372009147218  0.0000
  O1     O1        0.651533432458485    0.529420119347907    0.681145667379149  0.0000
  O1     O1        0.234227084965621    0.202989888037175    0.305278900945252  0.0000
  O1     O1        0.273895321505901    0.751546793638673    0.308868728617926  0.0000
  O1     O1        0.735242595014463    0.221892889294562    0.732320275046987  0.0000
  O3     O3        0.769138649193370    0.754405327920809    0.745541410652582  0.0000
  O1     O1        0.119269607687685    0.336381725420260    0.143277585070257  0.0000
  O1     O1        0.389381399728683    0.614213391709260    0.150057031957587  0.0000
  O1     O1        0.868262286747190    0.225262502164507    0.883731294341471  0.0000
  O1     O1        0.644550784588378    0.733980412060603    0.908235774002883  0.0000
  O3     O3        0.881576488471359    0.618062144624319    0.886832227315034  0.0000
  O1     O1        0.622855657958298    0.338700779851213    0.900191763715278  0.0000
  O1     O1        0.147331847955424    0.733519090756420    0.142102404802559  0.0000
  O1     O1        0.364467634098203    0.216478953316918    0.153191753814703  0.0000
  O1     O1        0.671351844524317    0.508463918151811    0.120810202773434  0.0000
  O1     O1        0.856468777278641    0.432433721733724    0.108717457251984  0.0000
  O1     O1        0.346598304963879    0.431347289598479    0.930948152985440  0.0000
  O1     O1        0.165949729586898    0.516857752460660    0.926103269020630  0.0000
  O1     O1        0.744048876465350    0.199474189339910    0.050379117152715  0.0000
  O1     O1        0.776893181193376    0.750103022725388    0.063801666736676  0.0000
  O1     O1        0.236144118969874    0.198067958562433    0.989902560904468  0.0000
  O1     O1        0.276017516634099    0.751137110085437    0.987967638226897  0.0000
