data_c00261.vasp
_audit_creation_method             Generated by GULP
_audit_author_name                 Salvador R. G. Balestra
_symmetry_space_group_name_H-M     'P 1             '
_symmetry_Int_Tables_number        1

loop_
_symmetry_equiv_pos_site_id
_symmetry_equiv_pos_as_xyz
_cell_length_a                       17.6968
_cell_length_b                        7.8758
_cell_length_c                       10.4038
_cell_angle_alpha                   89.9761
_cell_angle_beta                    90.4072
_cell_angle_gamma                   90.0782

loop_
_atom_site_label
_atom_site_type_symbol
_atom_site_fract_x
_atom_site_fract_y
_atom_site_fract_z
_atom_site_charge
  Ge     Ge        0.052090000000021    0.000000000000000    0.372269999999958  0.0000
  Ge     Ge        0.943788723646300    0.007243155884673    0.619532931829471  0.0000
  Ge     Ge        0.551396729462025    0.975099595931363    0.157815715123770  0.0000
  Ge     Ge        0.950016410841280    0.999164776518919    0.114218835204930  0.0000
  Ge     Ge        0.056432351920492    0.003332031674289    0.864592660344021  0.0000
  Ge     Ge        0.153060311671999    0.312793965656395    0.296371274585201  0.0000
  Ge     Ge        0.354759651043822    0.667334192861825    0.301095338731888  0.0000
  Ge     Ge        0.844141605416719    0.317145693983018    0.729473529309277  0.0000
  Ge     Ge        0.642070194244597    0.667102730873793    0.739970932013208  0.0000
  Ge     Ge        0.823803255112872    0.721986673026564    0.737121597566978  0.0000
  Ge     Ge        0.662030858217018    0.261357885090672    0.735348765259073  0.0000
  Ge     Ge        0.172571711527638    0.718585791242176    0.299033801551770  0.0000
  Ge     Ge        0.334815303332517    0.260868286375600    0.297872459010099  0.0000
  Ge     Ge        0.669594337459692    0.254211616362052    0.046813867254123  0.0000
  Ge     Ge        0.826037673426028    0.719453788513781    0.049410835554488  0.0000
  Ge     Ge        0.335848106163956    0.264085877867091    0.985733317386337  0.0000
  Ge     Ge        0.174326529200500    0.721982860420478    0.987639347870857  0.0000
  Ge     Ge        0.356577099629973    0.669436013364661    0.990252336956051  0.0000
  Ge     Ge        0.153366812164160    0.315247090869227    0.983464802473256  0.0000
  Ge     Ge        0.645127659994210    0.659467526005814    0.052547096973911  0.0000
  Ge     Ge        0.850278105824075    0.316259589683442    0.041963159027609  0.0000
  Si     Si        0.447830353150551    0.978081686567917    0.406882070471497  0.0000
  Si     Si        0.547216071698057    0.978147503699101    0.655376324311903  0.0000
  Si     Si        0.448621592203142    0.984185568854723    0.904432459513671  0.0000
  O1     O1        0.092107566762801    0.197676502234919    0.389083851070294  0.0000
  O3     O3        0.417095005381718    0.787807875978324    0.391221847088582  0.0000
  O1     O1        0.907788796631836    0.207421964122377    0.638760182688155  0.0000
  O3     O3        0.581942470528044    0.791221316018742    0.647379901837017  0.0000
  O1     O1        0.872826309859793    0.864330075549337    0.646461213939743  0.0000
  O3     O3        0.612216652952052    0.118588157258150    0.640833951083497  0.0000
  O1     O1        0.121691505344630    0.850330236255093    0.395832094785884  0.0000
  O3     O3        0.380234993904598    0.111421417169703    0.390951138660929  0.0000
  O1     O1        0.973456653069820    0.979579143155719    0.463472425980159  0.0000
  O2     O2        0.482126671542725    0.001374118302150    0.549434535049229  0.0000
  O1     O1        0.024925418852857    0.971751780305682    0.213785348349490  0.0000
  O3     O3        0.513540753740036    0.016225442873165    0.305961534100271  0.0000
  O1     O1        0.024672180246424    0.980283493932454    0.709420257476561  0.0000
  O2     O2        0.511721885262334    0.007994377773190    0.796430748666789  0.0000
  O1     O1        0.627667408145717    0.107579114370634    0.142693471523399  0.0000
  O1     O1        0.877522999390169    0.856975680446156    0.140940574721573  0.0000
  O3     O3        0.381493277277147    0.120114972230695    0.888364595797944  0.0000
  O1     O1        0.129368116424032    0.863780696799534    0.890388384391061  0.0000
  O3     O3        0.416621396263022    0.793485692564395    0.899119676704927  0.0000
  O1     O1        0.089872773094887    0.205697189584060    0.891292030738927  0.0000
  O1     O1        0.581666816133185    0.769550694730471    0.143891009033011  0.0000
  O1     O1        0.914165075024125    0.201218729881048    0.129445217593985  0.0000
  O3     O3        0.484540018768167    0.025331510898888    0.043081083380403  0.0000
  O1     O1        0.979946438079630    0.963295674895468    0.959389800318961  0.0000
  O1     O1        0.161426621040662    0.514013532802392    0.354522812570416  0.0000
  O1     O1        0.348044031000904    0.463625810324157    0.357475784310040  0.0000
  O1     O1        0.834710841274559    0.520918672783013    0.674600149757179  0.0000
  O1     O1        0.647688873333030    0.465575517546019    0.679766073324272  0.0000
  O1     O1        0.240289676452174    0.215327620535314    0.296732163281656  0.0000
  O1     O1        0.267546799636937    0.762763148358589    0.301370347968609  0.0000
  O1     O1        0.757026074209734    0.218863430294309    0.727013582707402  0.0000
  O1     O1        0.728927968614661    0.765346077588643    0.738917633156113  0.0000
  O1     O1        0.121441684764054    0.316668146212963    0.139396561492900  0.0000
  O1     O1        0.388863548766949    0.664266963461232    0.146633113050266  0.0000
  O1     O1        0.878967908340902    0.322715613327920    0.884149281332277  0.0000
  O1     O1        0.612255493480317    0.657113358790143    0.896341561019608  0.0000
  O1     O1        0.856358458641681    0.726738497667241    0.892488971219758  0.0000
  O1     O1        0.634142415282049    0.249971708803086    0.892516514286609  0.0000
  O1     O1        0.140944556613053    0.730638367639128    0.142176160665498  0.0000
  O1     O1        0.366754977074408    0.257713566920011    0.142714165941693  0.0000
  O1     O1        0.655829290242663    0.456359566736882    0.107003053692770  0.0000
  O1     O1        0.840515767251139    0.514913056666156    0.104330051183472  0.0000
  O1     O1        0.351053811478993    0.468028921214458    0.929934978101089  0.0000
  O1     O1        0.161388064136198    0.519419107074266    0.928930561897220  0.0000
  O1     O1        0.764399725022119    0.213236001050931    0.040513008843607  0.0000
  O1     O1        0.731279250407092    0.761967100689535    0.054623333722382  0.0000
  O1     O1        0.241049316177434    0.220599290560589    0.981653987441502  0.0000
  O1     O1        0.269376236691084    0.763708391191501    0.992506335636955  0.0000
