data_c00260.vasp
_audit_creation_method             Generated by GULP
_audit_author_name                 Salvador R. G. Balestra
_symmetry_space_group_name_H-M     'P 1             '
_symmetry_Int_Tables_number        1

loop_
_symmetry_equiv_pos_site_id
_symmetry_equiv_pos_as_xyz
_cell_length_a                       17.5112
_cell_length_b                        7.8444
_cell_length_c                       10.2424
_cell_angle_alpha                   90.3963
_cell_angle_beta                    91.1833
_cell_angle_gamma                   88.2757

loop_
_atom_site_label
_atom_site_type_symbol
_atom_site_fract_x
_atom_site_fract_y
_atom_site_fract_z
_atom_site_charge
  Ge     Ge        0.052090000000021    0.000000000000000    0.372269999999958  0.0000
  Ge     Ge        0.943909833502692    0.943510673237155    0.617668025774106  0.0000
  Ge     Ge        0.545216071494962    0.000204314863703    0.110438584848402  0.0000
  Ge     Ge        0.941233123537748    0.939123527968261    0.120625172328406  0.0000
  Ge     Ge        0.440249842758981    0.936146005901452    0.850183495397912  0.0000
  Ge     Ge        0.143838239563141    0.312514076029873    0.256574097190552  0.0000
  Ge     Ge        0.354951056406959    0.634287125372236    0.243029546315373  0.0000
  Ge     Ge        0.819218857800251    0.230075871680355    0.684758391088183  0.0000
  Ge     Ge        0.661703893039970    0.712557332905672    0.685564220051882  0.0000
  Ge     Ge        0.844345332588085    0.630910738985256    0.684262731048068  0.0000
  Ge     Ge        0.636857933108994    0.310318612226748    0.679906898051926  0.0000
  Ge     Ge        0.171754540847598    0.711658257103758    0.257286942517500  0.0000
  Ge     Ge        0.327358926871591    0.232235889400632    0.249054556714943  0.0000
  Ge     Ge        0.637033961678955    0.312969221566706    0.996899320924557  0.0000
  Ge     Ge        0.848569811489911    0.626292932628465    0.001423371736148  0.0000
  Ge     Ge        0.319541752770451    0.227735463094575    0.933186333965923  0.0000
  Ge     Ge        0.159898593584124    0.710734225725794    0.941779524593511  0.0000
  Ge     Ge        0.341689043293709    0.630431726024713    0.926416038669000  0.0000
  Ge     Ge        0.137774166368728    0.308359620558849    0.939680364446643  0.0000
  Ge     Ge        0.666766882750318    0.714354725789362    0.002579306778721  0.0000
  Ge     Ge        0.818840433882108    0.225239850183619    0.002309779436548  0.0000
  Si     Si        0.444314278236776    0.946643599340507    0.356852875406017  0.0000
  Si     Si        0.544235812518957    0.997595020351587    0.604679523513828  0.0000
  Si     Si        0.040725038432043    0.001383992159101    0.874120613690856  0.0000
  O1     O1        0.078817082604001    0.204682049172654    0.344257696306075  0.0000
  O3     O3        0.422514523144253    0.753196048239928    0.325423906571960  0.0000
  O1     O1        0.870078695598965    0.089098944510482    0.590191758275973  0.0000
  O3     O3        0.613580202146047    0.861171314568712    0.587811056990353  0.0000
  O1     O1        0.908387482271889    0.743583957066465    0.597113282233024  0.0000
  O3     O3        0.573135454078387    0.188076105722960    0.589559191031921  0.0000
  O1     O1        0.129661215353919    0.865548607406042    0.352101127935214  0.0000
  O3     O3        0.371185794033837    0.072484619563542    0.340867683627145  0.0000
  O1     O1        0.022751256953115    0.981857745736574    0.530973170306282  0.0000
  O2     O2        0.473453676554058    0.958110654254514    0.507834308099639  0.0000
  O1     O1        0.973576480320606    0.946433675907555    0.279393356296320  0.0000
  O3     O3        0.513242321434858    0.004501345005159    0.268918152780842  0.0000
  O3     O3        0.968542276324300    0.964398642139193    0.783414786600782  0.0000
  O3     O3        0.515411338928858    0.975572248308768    0.752409495731285  0.0000
  O1     O1        0.569100688714767    0.206102946613113    0.077477193208999  0.0000
  O1     O1        0.916304596193235    0.732862960735961    0.089167304612030  0.0000
  O1     O1        0.368026518597622    0.088511590095564    0.834566634075620  0.0000
  O3     O3        0.107417515253463    0.858281144330964    0.851000888750830  0.0000
  O1     O1        0.401055320220480    0.739464288755245    0.828299251222940  0.0000
  O3     O3        0.073403817358951    0.188365454062988    0.850273503998510  0.0000
  O1     O1        0.624039805097785    0.865924260063872    0.098853235697586  0.0000
  O1     O1        0.863586029309253    0.075062526563797    0.099058423334500  0.0000
  O1     O1        0.473374213357376    0.933564564423170    0.009673370309330  0.0000
  O3     O3        0.016289632912586    0.997970535465599    0.025337999188463  0.0000
  O1     O1        0.156704082995251    0.512551385404933    0.320188266327108  0.0000
  O1     O1        0.347868163234121    0.433218583891707    0.306849810286553  0.0000
  O1     O1        0.831669825286968    0.431377463761400    0.622466201925046  0.0000
  O1     O1        0.645857762904338    0.511734825328460    0.620846869991574  0.0000
  O1     O1        0.230872671962763    0.204196049430355    0.254671083825348  0.0000
  O1     O1        0.268006269209472    0.740793532274459    0.250014300692006  0.0000
  O1     O1        0.722774292842174    0.197968681375394    0.681088300050969  0.0000
  O1     O1        0.758100700714974    0.744227384110891    0.685264837442849  0.0000
  O1     O1        0.110443780884119    0.334320638543985    0.098734817616772  0.0000
  O1     O1        0.379253047467184    0.610775055464935    0.082906480885340  0.0000
  O1     O1        0.850495941418834    0.214479597608164    0.844803844477008  0.0000
  O1     O1        0.631619926770373    0.727075240110712    0.844148609983558  0.0000
  O1     O1        0.876922846714215    0.606886701159472    0.842553361438338  0.0000
  O1     O1        0.606626386572462    0.334898953308361    0.836979437964724  0.0000
  O1     O1        0.132593641013611    0.722331899856000    0.101937516465045  0.0000
  O1     O1        0.356835059131503    0.214398143608845    0.090276575361816  0.0000
  O1     O1        0.650140492639679    0.512734035445420    0.060349000173332  0.0000
  O1     O1        0.836191391994889    0.426901535443080    0.062897854662082  0.0000
  O1     O1        0.327876091445501    0.429333218076244    0.869325965953984  0.0000
  O1     O1        0.144917124571841    0.508969219579357    0.878047822430542  0.0000
  O1     O1        0.722014147073845    0.196827164432797    0.000771678890513  0.0000
  O1     O1        0.763380112867347    0.742154437012990    0.002266670405286  0.0000
  O1     O1        0.223474845678204    0.194684633963314    0.940118937423884  0.0000
  O1     O1        0.255938036581908    0.744490164032889    0.935836105516756  0.0000
