data_c00224.vasp
_audit_creation_method             Generated by GULP
_audit_author_name                 Salvador R. G. Balestra
_symmetry_space_group_name_H-M     'P 1             '
_symmetry_Int_Tables_number        1

loop_
_symmetry_equiv_pos_site_id
_symmetry_equiv_pos_as_xyz
_cell_length_a                       17.5541
_cell_length_b                        7.8362
_cell_length_c                       10.2737
_cell_angle_alpha                   88.9970
_cell_angle_beta                    90.2197
_cell_angle_gamma                   91.4342

loop_
_atom_site_label
_atom_site_type_symbol
_atom_site_fract_x
_atom_site_fract_y
_atom_site_fract_z
_atom_site_charge
  Ge     Ge        0.052090000000021    0.000000000000000    0.372269999999958  0.0000
  Ge     Ge        0.441916480623010    0.054242130071898    0.377483763653939  0.0000
  Ge     Ge        0.944196782443153    0.066945342582506    0.617988025405547  0.0000
  Ge     Ge        0.552847685951685    0.001433154565891    0.130645646071954  0.0000
  Ge     Ge        0.945909923995504    0.062294963534901    0.122039199188474  0.0000
  Ge     Ge        0.049997548042654    0.009059042487594    0.871401753938363  0.0000
  Ge     Ge        0.173055477305264    0.287237294931675    0.256744514717214  0.0000
  Ge     Ge        0.326371052826642    0.760843721215687    0.268187531395092  0.0000
  Ge     Ge        0.844573825793063    0.379453449347133    0.684411239400530  0.0000
  Ge     Ge        0.637601447795682    0.703738565371497    0.698594043742226  0.0000
  Ge     Ge        0.819956041728096    0.780855887545019    0.690782698774696  0.0000
  Ge     Ge        0.662712679527656    0.301016232247010    0.698601741403893  0.0000
  Ge     Ge        0.143589614094827    0.686439351554666    0.258598969115685  0.0000
  Ge     Ge        0.673034354843813    0.289051676703032    0.015318412670772  0.0000
  Ge     Ge        0.823835593189782    0.778806875258120    0.006428425018319  0.0000
  Ge     Ge        0.353959806973816    0.377140685296033    0.948086143967698  0.0000
  Ge     Ge        0.152009145318271    0.700762107186807    0.941643236915424  0.0000
  Ge     Ge        0.333510608803205    0.782758732950166    0.955173223560941  0.0000
  Ge     Ge        0.173698995150548    0.297498277881383    0.941500382986206  0.0000
  Ge     Ge        0.642905230943281    0.690359053731213    0.013649885939990  0.0000
  Ge     Ge        0.853432666333759    0.376677815713731    0.001748365791323  0.0000
  Si     Si        0.543510926089607    0.018670643690212    0.628522219901525  0.0000
  Si     Si        0.450511861149690    0.073256596871767    0.879685082033692  0.0000
  Si     Si        0.351138881058662    0.366078063536279    0.256944350433926  0.0000
  O1     O1        0.131903652538522    0.126892179980262    0.347620394469684  0.0000
  O1     O1        0.371194166633015    0.900909800986266    0.370270750490441  0.0000
  O1     O1        0.908604656218521    0.267450240098598    0.595403410573069  0.0000
  O3     O3        0.573470030003013    0.828315750707157    0.612429047235653  0.0000
  O1     O1        0.870184431894476    0.922861005597282    0.594176225622798  0.0000
  O3     O3        0.612452126136664    0.154710959034259    0.605622322025448  0.0000
  O1     O1        0.075952814182621    0.793233283417235    0.342785508436157  0.0000
  O3     O3        0.410945239821797    0.256491126800869    0.338345081149848  0.0000
  O1     O1        0.023505703298512    0.022722474566283    0.531178055283529  0.0000
  O3     O3        0.472438367894830    0.057515865296901    0.538149321540650  0.0000
  O1     O1        0.974586000646459    0.060674215936538    0.282250860636617  0.0000
  O1     O1        0.519393009298998    0.007010613589074    0.286324631107530  0.0000
  O1     O1        0.971983117652423    0.049236449913854    0.779935816875672  0.0000
  O2     O2        0.518566891628149    0.039391863708180    0.780300639371956  0.0000
  O1     O1        0.630487380345080    0.136780603641840    0.112892829969351  0.0000
  O1     O1        0.868587924575330    0.926874958409800    0.101735752616458  0.0000
  O3     O3        0.419038968535943    0.263248472972947    0.860890377204354  0.0000
  O1     O1        0.090200991636558    0.813836638770483    0.846925414287659  0.0000
  O3     O3        0.383021931332360    0.932539461032097    0.861840825988092  0.0000
  O1     O1        0.120842971024656    0.162881471163837    0.847293898687396  0.0000
  O1     O1        0.577818115622223    0.795091600143802    0.103438664802325  0.0000
  O1     O1        0.923153942652509    0.268964027833682    0.082140761786275  0.0000
  O3     O3        0.480394435548302    0.062271053854281    0.027294210450807  0.0000
  O1     O1        0.022078906093904    0.000817064369539    0.032555183397298  0.0000
  O1     O1        0.151635578820054    0.482052572270551    0.319521544214892  0.0000
  O3     O3        0.339543568504417    0.550220632138889    0.319139470557873  0.0000
  O1     O1        0.832042277545006    0.581439142817199    0.625590613873555  0.0000
  O1     O1        0.646432977013468    0.503943564363389    0.636865681108468  0.0000
  O3     O3        0.270741379513924    0.262113462378560    0.253558587631759  0.0000
  O1     O1        0.230432354854870    0.793297602733301    0.267839003856292  0.0000
  O1     O1        0.758802420472432    0.267053522414636    0.688301747551294  0.0000
  O1     O1        0.723962333720365    0.813765986627838    0.695423198096093  0.0000
  O1     O1        0.140630780529529    0.276840915896595    0.099032346721813  0.0000
  O1     O1        0.363147284070414    0.794729895004536    0.114824385845145  0.0000
  O1     O1        0.878014194530615    0.400627479592131    0.840970880617322  0.0000
  O1     O1        0.609246807684394    0.674801730044075    0.856817565763764  0.0000
  O1     O1        0.854742118841404    0.794467972536476    0.847714014359594  0.0000
  O1     O1        0.637224910449877    0.284300273520027    0.859455634642978  0.0000
  O1     O1        0.118180379620400    0.672437467154897    0.097902062646427  0.0000
  O3     O3        0.380435958253420    0.396455940459095    0.110260245786244  0.0000
  O1     O1        0.657955123272465    0.490030268981073    0.075415161400056  0.0000
  O1     O1        0.842126806210234    0.575542808319065    0.064439000752045  0.0000
  O1     O1        0.347861566929626    0.582388731592371    0.892173103072068  0.0000
  O1     O1        0.164909948565619    0.502938456835645    0.880833964828704  0.0000
  O1     O1        0.769342886083118    0.258919522371533    0.011055366749154  0.0000
  O1     O1        0.727390585487097    0.807042926003616    0.008938293323895  0.0000
  O1     O1        0.269668537813599    0.262088464921792    0.940124552643865  0.0000
  O1     O1        0.237404970652212    0.814911675087409    0.951047949029103  0.0000
