data_c00232.vasp
_audit_creation_method             Generated by GULP
_audit_author_name                 Salvador R. G. Balestra
_symmetry_space_group_name_H-M     'P 1             '
_symmetry_Int_Tables_number        1

loop_
_symmetry_equiv_pos_site_id
_symmetry_equiv_pos_as_xyz
_cell_length_a                       17.5880
_cell_length_b                        7.8400
_cell_length_c                       10.2588
_cell_angle_alpha                   90.1992
_cell_angle_beta                    91.0482
_cell_angle_gamma                   88.5445

loop_
_atom_site_label
_atom_site_type_symbol
_atom_site_fract_x
_atom_site_fract_y
_atom_site_fract_z
_atom_site_charge
  Ge     Ge        0.052090000000021    0.000000000000000    0.372269999999958  0.0000
  Ge     Ge        0.448884873515482    0.942737046137206    0.385320896786951  0.0000
  Ge     Ge        0.943423728388416    0.940865762335829    0.619537258093429  0.0000
  Ge     Ge        0.557983236137988    0.998253060309782    0.143734741462390  0.0000
  Ge     Ge        0.447510468356191    0.935622544340073    0.891372401623341  0.0000
  Ge     Ge        0.047353569556133    0.001546479322696    0.878592297128155  0.0000
  Ge     Ge        0.145391888241297    0.313091754742135    0.260750716058444  0.0000
  Ge     Ge        0.354871772245752    0.630875301693061    0.265846298501167  0.0000
  Ge     Ge        0.822241325062308    0.227332848811446    0.699100069352335  0.0000
  Ge     Ge        0.664749380921612    0.705144257948966    0.708970723662407  0.0000
  Ge     Ge        0.846065962523729    0.628866605927289    0.692967744865352  0.0000
  Ge     Ge        0.640656110358471    0.302156948096202    0.709225115428645  0.0000
  Ge     Ge        0.174727371959931    0.713956306019584    0.267365268308082  0.0000
  Ge     Ge        0.326437755919941    0.227614008091992    0.268455221637975  0.0000
  Ge     Ge        0.649761714072421    0.309402449831166    0.025186519688416  0.0000
  Ge     Ge        0.858235394142318    0.632065628580327    0.009579363863699  0.0000
  Ge     Ge        0.327833886562091    0.233905957440840    0.953498251668800  0.0000
  Ge     Ge        0.172215988239567    0.713443824697781    0.950850990405832  0.0000
  Ge     Ge        0.146922022465975    0.314955533944807    0.942148065783899  0.0000
  Ge     Ge        0.676772444061124    0.710697420092655    0.025664269056904  0.0000
  Ge     Ge        0.831856588130617    0.229006966270054    0.015295789377476  0.0000
  Si     Si        0.545825371716249    0.988600700325394    0.640659208421497  0.0000
  Si     Si        0.948660290546030    0.941864697357046    0.125534630079820  0.0000
  Si     Si        0.349017508754786    0.629162906729157    0.955063114572905  0.0000
  O1     O1        0.077857007027025    0.205122955213649    0.343551004742252  0.0000
  O1     O1        0.424895213509758    0.737310908174812    0.346780740654390  0.0000
  O1     O1        0.869866013678460    0.087712541875167    0.599992521841169  0.0000
  O3     O3        0.614109422561060    0.852181460235506    0.614717666106044  0.0000
  O1     O1        0.907124507406594    0.741221472374454    0.599115436401968  0.0000
  O3     O3        0.575427539074587    0.179608184538856    0.624315452889439  0.0000
  O1     O1        0.128927445970726    0.864168201566482    0.360137920350858  0.0000
  O1     O1        0.371924882928654    0.077703230432527    0.363800590161797  0.0000
  O1     O1        0.020347340544535    0.984615858685449    0.529559382869897  0.0000
  O3     O3        0.473559614546001    0.953847291344888    0.550055326920194  0.0000
  O3     O3        0.975092497787874    0.941369715062129    0.275974164971744  0.0000
  O1     O1        0.527537648921508    0.998203965374826    0.301560127371577  0.0000
  O1     O1        0.972540909052908    0.952937444261276    0.782008830263480  0.0000
  O3     O3        0.523171333744933    0.960449303099374    0.791222193539602  0.0000
  O1     O1        0.585124060753139    0.202744487133732    0.113269337146471  0.0000
  O3     O3        0.927262030899160    0.749266618552951    0.087669036741394  0.0000
  O1     O1        0.380362159763772    0.094795277563879    0.861493139969016  0.0000
  O1     O1        0.123665057580311    0.861554488730570    0.859573097908335  0.0000
  O3     O3        0.407427213345226    0.736137046998004    0.872319551502869  0.0000
  O1     O1        0.081606976934070    0.202384715329056    0.853970894665002  0.0000
  O1     O1        0.634369101300975    0.860880050415103    0.122588417613597  0.0000
  O3     O3        0.877046345133691    0.071338922173460    0.106473422242165  0.0000
  O1     O1        0.481320514916234    0.941635798364608    0.049062531077683  0.0000
  O3     O3        0.019079955629568    0.000997104350744    0.040669863616512  0.0000
  O1     O1        0.158396382724951    0.512242642131550    0.325597507371505  0.0000
  O1     O1        0.343908590179755    0.430035264648317    0.326425167387506  0.0000
  O1     O1        0.832438547723397    0.428479771163200    0.634254966789880  0.0000
  O1     O1        0.648262197318865    0.503058022726346    0.647467690230909  0.0000
  O1     O1        0.230231301278186    0.197765553158905    0.266956943968583  0.0000
  O1     O1        0.270849005525834    0.746363876857864    0.275439186980397  0.0000
  O1     O1        0.726759256370282    0.192229232383289    0.706242578656628  0.0000
  O1     O1        0.760341580295977    0.740392845674223    0.700773143317666  0.0000
  O1     O1        0.118414401686990    0.338839897617728    0.100960382200049  0.0000
  O3     O3        0.378529951271871    0.605114995645412    0.103568080951068  0.0000
  O1     O1        0.859637165129933    0.215841458660141    0.855752241531364  0.0000
  O1     O1        0.639195701327098    0.717656295388304    0.869817912228565  0.0000
  O1     O1        0.882100868957990    0.607946176122260    0.849456404438629  0.0000
  O1     O1        0.614434234192496    0.325747006961974    0.868300179302555  0.0000
  O1     O1        0.142049777563427    0.729578588536873    0.108961064424587  0.0000
  O1     O1        0.359315181766457    0.208187594268038    0.111951088564232  0.0000
  O1     O1        0.663260931922089    0.509439057933654    0.087168937856208  0.0000
  O1     O1        0.851842154054736    0.430443997210834    0.073478943907189  0.0000
  O3     O3        0.337818425062753    0.441886204442383    0.896598523210794  0.0000
  O1     O1        0.155485941213508    0.516190090532365    0.882843062881033  0.0000
  O1     O1        0.735865677031244    0.199633660460576    0.022048580467758  0.0000
  O1     O1        0.772776593580303    0.741394493242667    0.019431573842149  0.0000
  O1     O1        0.232170400956278    0.200146424836272    0.944165426706401  0.0000
  O3     O3        0.269776921381049    0.738357482834364    0.956584402009816  0.0000
