data_c00242.vasp
_audit_creation_method             Generated by GULP
_audit_author_name                 Salvador R. G. Balestra
_symmetry_space_group_name_H-M     'P 1             '
_symmetry_Int_Tables_number        1

loop_
_symmetry_equiv_pos_site_id
_symmetry_equiv_pos_as_xyz
_cell_length_a                       17.5529
_cell_length_b                        7.8389
_cell_length_c                       10.2639
_cell_angle_alpha                   89.7016
_cell_angle_beta                    89.9393
_cell_angle_gamma                   88.5208

loop_
_atom_site_label
_atom_site_type_symbol
_atom_site_fract_x
_atom_site_fract_y
_atom_site_fract_z
_atom_site_charge
  Ge     Ge        0.052090000000021    0.000000000000000    0.372269999999958  0.0000
  Ge     Ge        0.452251978422224    0.941408070383976    0.379704787486087  0.0000
  Ge     Ge        0.946126654008187    0.941675843023255    0.621691277072763  0.0000
  Ge     Ge        0.951585878360372    0.937103012541057    0.115863236585886  0.0000
  Ge     Ge        0.447345944951798    0.944348660708660    0.874387487785448  0.0000
  Ge     Ge        0.057112991399255    0.003767128286237    0.864115283621569  0.0000
  Ge     Ge        0.149442154896585    0.313999192750104    0.299018257907826  0.0000
  Ge     Ge        0.355742993971488    0.629838912657159    0.300097725802201  0.0000
  Ge     Ge        0.824152081201952    0.228147394759034    0.736365730233013  0.0000
  Ge     Ge        0.669023502190091    0.705245844718324    0.735402249630315  0.0000
  Ge     Ge        0.851636954229506    0.628633001102857    0.737736939654412  0.0000
  Ge     Ge        0.641157763288979    0.305050231889644    0.740601655182204  0.0000
  Ge     Ge        0.176320080793174    0.716946863472466    0.299758014474864  0.0000
  Ge     Ge        0.329777796976779    0.224914214582512    0.295908538782594  0.0000
  Ge     Ge        0.644675948995890    0.306770999022341    0.055671207413419  0.0000
  Ge     Ge        0.848079730748039    0.628818031295803    0.056845435529943  0.0000
  Ge     Ge        0.330253363084454    0.239269903395793    0.981390767210170  0.0000
  Ge     Ge        0.177397063117138    0.718828763949064    0.983204193681880  0.0000
  Ge     Ge        0.147596117640134    0.318925301133294    0.981904330640885  0.0000
  Ge     Ge        0.666933883577621    0.708559347691048    0.052635403391065  0.0000
  Ge     Ge        0.826120141195664    0.226965962414731    0.051215880662882  0.0000
  Si     Si        0.552945746779700    0.992006510143459    0.629414021944076  0.0000
  Si     Si        0.549527841799159    0.998831763340126    0.124098644866613  0.0000
  Si     Si        0.355478412674604    0.635676456492043    0.990739513009489  0.0000
  O1     O1        0.085288240152227    0.202457109857066    0.390301434891640  0.0000
  O1     O1        0.421170568548147    0.736654969080210    0.390452996231995  0.0000
  O1     O1        0.869012362796809    0.075655367145794    0.644138306671765  0.0000
  O3     O3        0.625413553122303    0.866014429679776    0.645623912844913  0.0000
  O1     O1        0.920237339824413    0.736715467307682    0.655049309919114  0.0000
  O3     O3        0.574173344738539    0.185270101501830    0.661519943363426  0.0000
  O1     O1        0.125758397421568    0.854166316077048    0.397433327529551  0.0000
  O1     O1        0.377338164352644    0.084380675388985    0.396627204675904  0.0000
  O1     O1        0.972966767400710    0.957342663874646    0.460359842726006  0.0000
  O3     O3        0.527029001722588    0.983252852633487    0.479505427868630  0.0000
  O1     O1        0.027920141826766    0.979100927515604    0.209318451566356  0.0000
  O3     O3        0.479916541417843    0.966333048807503    0.217884838065031  0.0000
  O1     O1        0.026552223543165    0.997180541763218    0.705277953350727  0.0000
  O3     O3        0.482082796065435    0.932412007326940    0.716772289196296  0.0000
  O3     O3        0.583190844266406    0.185571302546509    0.147196352363578  0.0000
  O1     O1        0.913916392034063    0.738993482339551    0.142588738430961  0.0000
  O1     O1        0.376588385318103    0.098393998634333    0.879989573547483  0.0000
  O1     O1        0.136812118435842    0.874647570547129    0.887884564666498  0.0000
  O3     O3        0.415884999855765    0.741841264572652    0.909233969370515  0.0000
  O1     O1        0.080457490157522    0.210641218235822    0.897594076880490  0.0000
  O3     O3        0.616135533441666    0.855299686609483    0.144458320986105  0.0000
  O1     O1        0.878501565531616    0.084594363889838    0.141388964375559  0.0000
  O3     O3        0.522299587124340    0.993917785564224    0.973838339327655  0.0000
  O1     O1        0.981498414875839    0.938523992668385    0.955484285120803  0.0000
  O1     O1        0.163421879993331    0.512405982949637    0.359092277489933  0.0000
  O1     O1        0.343408272809397    0.428173723930828    0.355626978036431  0.0000
  O1     O1        0.841128446575494    0.428365608308110    0.674613849886128  0.0000
  O1     O1        0.650526323942412    0.505643694692020    0.674444651983810  0.0000
  O1     O1        0.233500059018816    0.194105414324165    0.295180966402086  0.0000
  O1     O1        0.272310294459428    0.750689923454584    0.304334033852447  0.0000
  O1     O1        0.727771908171067    0.198264864685023    0.737600340236357  0.0000
  O1     O1        0.765113682502073    0.737371551809021    0.730724419065005  0.0000
  O1     O1        0.118292647291337    0.336440123192873    0.141012566720712  0.0000
  O3     O3        0.384278201171246    0.612559232218450    0.138471466824085  0.0000
  O1     O1        0.858700960801821    0.213826821346578    0.892829747530032  0.0000
  O1     O1        0.637122171744904    0.715822132666186    0.893311964252608  0.0000
  O1     O1        0.877493513192071    0.606127989648098    0.897634162914644  0.0000
  O1     O1        0.612784323995050    0.333868595779302    0.898584160131126  0.0000
  O1     O1        0.144766372185260    0.733217513141839    0.140818490466625  0.0000
  O1     O1        0.362052759325459    0.207957077566630    0.137688611772981  0.0000
  O1     O1        0.654150711126171    0.506817533250314    0.117595363204710  0.0000
  O1     O1        0.836988494682730    0.427797384867192    0.116457615360848  0.0000
  O3     O3        0.344881833640823    0.448874715236246    0.931110434913146  0.0000
  O1     O1        0.156471905763251    0.522012341661793    0.921339819102100  0.0000
  O1     O1        0.730127339408660    0.193749846088955    0.049950905430610  0.0000
  O1     O1        0.762841096678642    0.744142742150365    0.056696572599207  0.0000
  O1     O1        0.233958229529023    0.209794684290725    0.975816930958236  0.0000
  O3     O3        0.275293815190299    0.740849985681352    0.989561147868874  0.0000
