data_c00251.vasp
_audit_creation_method             Generated by GULP
_audit_author_name                 Salvador R. G. Balestra
_symmetry_space_group_name_H-M     'P 1             '
_symmetry_Int_Tables_number        1

loop_
_symmetry_equiv_pos_site_id
_symmetry_equiv_pos_as_xyz
_cell_length_a                       17.7458
_cell_length_b                        7.8571
_cell_length_c                       10.3791
_cell_angle_alpha                   90.4809
_cell_angle_beta                    90.1953
_cell_angle_gamma                   90.1874

loop_
_atom_site_label
_atom_site_type_symbol
_atom_site_fract_x
_atom_site_fract_y
_atom_site_fract_z
_atom_site_charge
  Ge     Ge        0.052090000000021    0.000000000000000    0.372269999999958  0.0000
  Ge     Ge        0.450020211168399    0.971051521838915    0.400671033006760  0.0000
  Ge     Ge        0.554990435982014    0.973209666629787    0.148623883413974  0.0000
  Ge     Ge        0.950777115637960    0.997257930004674    0.111964197826176  0.0000
  Ge     Ge        0.448789101997614    0.969645664518323    0.896037558742472  0.0000
  Ge     Ge        0.056732758039288    0.994205157035028    0.860418971779850  0.0000
  Ge     Ge        0.150266323161603    0.311482228739463    0.286870052286022  0.0000
  Ge     Ge        0.351404586756991    0.658675958300983    0.285819628573200  0.0000
  Ge     Ge        0.851086768507102    0.311720772346534    0.719563778414609  0.0000
  Ge     Ge        0.651399034145720    0.668843524852363    0.722644296374054  0.0000
  Ge     Ge        0.833403394631573    0.716816823618124    0.728061859006954  0.0000
  Ge     Ge        0.668455889254728    0.263704188858356    0.718180642083158  0.0000
  Ge     Ge        0.171503966973996    0.722282104723316    0.286369742199249  0.0000
  Ge     Ge        0.328974591359193    0.250078074632479    0.286667685314109  0.0000
  Ge     Ge        0.673820659518991    0.252845075653939    0.030433114444882  0.0000
  Ge     Ge        0.828401906902326    0.716404755149442    0.042011545838131  0.0000
  Ge     Ge        0.328124869546710    0.247466341257788    0.973707796940966  0.0000
  Ge     Ge        0.170691508356163    0.707310134596043    0.975135104502272  0.0000
  Ge     Ge        0.351815365949658    0.651108029180636    0.972062103375084  0.0000
  Ge     Ge        0.648568024489737    0.657656771877943    0.036954749740961  0.0000
  Ge     Ge        0.853798498355431    0.314199957485085    0.032667630801452  0.0000
  Si     Si        0.948910828758965    0.005121868875399    0.617208083522299  0.0000
  Si     Si        0.552919965159338    0.977667384388377    0.649410422911073  0.0000
  Si     Si        0.150819232892318    0.303825061949022    0.981039393968711  0.0000
  O1     O1        0.087470076024638    0.203090705566619    0.380454474780012  0.0000
  O1     O1        0.416344739819329    0.768921350372857    0.375760586435887  0.0000
  O3     O3        0.913926239455014    0.192177040614670    0.630546470991459  0.0000
  O3     O3        0.591218582721497    0.793687668971384    0.632272965568493  0.0000
  O3     O3        0.885163601850544    0.866837113428745    0.647333769025600  0.0000
  O3     O3        0.615643193684284    0.122457420283525    0.625899521436952  0.0000
  O1     O1        0.123402616886284    0.854147358524296    0.388919784262185  0.0000
  O1     O1        0.378350246543294    0.113863528917006    0.381774117086982  0.0000
  O3     O3        0.975879204999805    0.974625912747391    0.471173862278504  0.0000
  O3     O3        0.481001608824129    0.993601428387965    0.558418812614324  0.0000
  O1     O1        0.021893931534670    0.962727242662276    0.216487238880476  0.0000
  O1     O1        0.525542390755636    0.008757469765934    0.303311557442094  0.0000
  O3     O3        0.024085640585231    0.988536917440782    0.703250330537870  0.0000
  O3     O3        0.523900671902538    0.001193183868830    0.795919358019148  0.0000
  O1     O1        0.630563153765918    0.104531237415711    0.122599045988920  0.0000
  O1     O1        0.876907222866337    0.857501864519580    0.135212572915909  0.0000
  O1     O1        0.373401756854545    0.105746265318887    0.876546441679900  0.0000
  O1     O1        0.123461425274388    0.837311396639592    0.872039642782799  0.0000
  O1     O1        0.414478066995187    0.766060928164194    0.882398773295010  0.0000
  O3     O3        0.093605636968671    0.194414057443816    0.894537544004361  0.0000
  O1     O1        0.583171726361796    0.765704710819061    0.125332983011629  0.0000
  O1     O1        0.916247635554964    0.200875120167555    0.123291804551034  0.0000
  O1     O1        0.480595100830237    0.015766406965867    0.049054982372719  0.0000
  O1     O1        0.981943894819792    0.955736934132126    0.957683355959499  0.0000
  O1     O1        0.159526812135675    0.515816650055955    0.338756160200161  0.0000
  O1     O1        0.340226682102251    0.456560085554381    0.341905987643536  0.0000
  O1     O1        0.845866386422137    0.516105376296470    0.663101794095906  0.0000
  O1     O1        0.656153971461892    0.466871750985270    0.660328342918459  0.0000
  O1     O1        0.234526061470409    0.204418656120898    0.292469301399834  0.0000
  O1     O1        0.266379727870474    0.764517463330012    0.287995278116766  0.0000
  O1     O1        0.763024457684857    0.219370112736852    0.712333838887813  0.0000
  O1     O1        0.739033955914574    0.763280304736624    0.721470200641588  0.0000
  O3     O3        0.120060918721859    0.309759581420542    0.126845663088109  0.0000
  O1     O1        0.382865017249380    0.651026640617791    0.129433149704956  0.0000
  O1     O1        0.884122036534493    0.318673597405204    0.875003346891958  0.0000
  O1     O1        0.619588435396364    0.656487925389746    0.878236172645371  0.0000
  O1     O1        0.860846982398297    0.714489532919918    0.885630825526472  0.0000
  O1     O1        0.639485119164890    0.254581016148536    0.875366777006871  0.0000
  O1     O1        0.139377817045030    0.737337213491553    0.129745439785024  0.0000
  O1     O1        0.359795783846411    0.237155326872279    0.130359081274470  0.0000
  O1     O1        0.658939546964382    0.454862305551003    0.092312579802480  0.0000
  O1     O1        0.842155322796699    0.511975334037427    0.097528904195778  0.0000
  O1     O1        0.345154850274664    0.447926036889098    0.914589278343153  0.0000
  O3     O3        0.158886467111968    0.494706760786077    0.929334820579627  0.0000
  O1     O1        0.768123462233146    0.210299255742780    0.026093443101972  0.0000
  O1     O1        0.734231486445475    0.761171585904015    0.042798607674225  0.0000
  O3     O3        0.231864998419333    0.211513646067029    0.978897296488410  0.0000
  O1     O1        0.265260096099190    0.749528266981611    0.970317019551607  0.0000
