data_c00233.vasp
_audit_creation_method             Generated by GULP
_audit_author_name                 Salvador R. G. Balestra
_symmetry_space_group_name_H-M     'P 1             '
_symmetry_Int_Tables_number        1

loop_
_symmetry_equiv_pos_site_id
_symmetry_equiv_pos_as_xyz
_cell_length_a                       17.5492
_cell_length_b                        7.8560
_cell_length_c                       10.2086
_cell_angle_alpha                   89.9003
_cell_angle_beta                    91.6215
_cell_angle_gamma                   88.0889

loop_
_atom_site_label
_atom_site_type_symbol
_atom_site_fract_x
_atom_site_fract_y
_atom_site_fract_z
_atom_site_charge
  Ge     Ge        0.052090000000021    0.000000000000000    0.372269999999958  0.0000
  Ge     Ge        0.443755217332439    0.949583728154433    0.376561981731622  0.0000
  Ge     Ge        0.939220182594986    0.950480311439317    0.614003173572358  0.0000
  Ge     Ge        0.554749150402794    0.006419364407333    0.136875277579550  0.0000
  Ge     Ge        0.447246415238593    0.942981691431917    0.878431912089699  0.0000
  Ge     Ge        0.041654927836292    0.007926005027814    0.875676429948752  0.0000
  Ge     Ge        0.145904612341564    0.313470911952695    0.260075573626671  0.0000
  Ge     Ge        0.355241064842955    0.628451292850979    0.261271504370235  0.0000
  Ge     Ge        0.819733751730628    0.239537875371316    0.694094804618015  0.0000
  Ge     Ge        0.660590411208144    0.719465486232113    0.702222868813874  0.0000
  Ge     Ge        0.842531260644241    0.640705514695444    0.689547522779839  0.0000
  Ge     Ge        0.637796741401309    0.317002933403935    0.701263268603140  0.0000
  Ge     Ge        0.172019414208672    0.710452889290849    0.264686796961230  0.0000
  Ge     Ge        0.645503367000265    0.318637227923016    0.018875445894148  0.0000
  Ge     Ge        0.855410320084087    0.639210723451454    0.006706604826483  0.0000
  Ge     Ge        0.321828790743915    0.231949304908285    0.947335992525025  0.0000
  Ge     Ge        0.168099066316596    0.718769197630905    0.947481696627313  0.0000
  Ge     Ge        0.349502458812297    0.633514382364439    0.945042776882876  0.0000
  Ge     Ge        0.141877566278221    0.318061587303634    0.940392809975882  0.0000
  Ge     Ge        0.672628613634561    0.718969881489273    0.019597027869913  0.0000
  Ge     Ge        0.828651946756319    0.237505819346347    0.011991695742577  0.0000
  Si     Si        0.543128189230581    0.008320988949320    0.628932047126966  0.0000
  Si     Si        0.945322189856406    0.947812983218375    0.124887579741133  0.0000
  Si     Si        0.325421885601058    0.235761733100770    0.258592535052198  0.0000
  O1     O1        0.082130298499711    0.201765902625373    0.346391534424151  0.0000
  O1     O1        0.418688379284683    0.742382851225484    0.354005257091121  0.0000
  O1     O1        0.866901111465000    0.102168835696750    0.592593438243409  0.0000
  O3     O3        0.609744995131246    0.866195466512909    0.604963616208315  0.0000
  O1     O1        0.902033258028271    0.752944880951147    0.593277473473152  0.0000
  O3     O3        0.574113752516667    0.196550332416430    0.610411095937329  0.0000
  O1     O1        0.128265329933076    0.861500047983473    0.359541034215902  0.0000
  O3     O3        0.367036585330603    0.087161197127328    0.343181940283871  0.0000
  O1     O1        0.018650662776911    0.987680711231282    0.528965382612589  0.0000
  O3     O3        0.468560663484376    0.975786841958466    0.541464977544714  0.0000
  O3     O3        0.973344042606655    0.948817880342738    0.275880656457716  0.0000
  O1     O1        0.523682439728844    0.997367462391621    0.294407125573749  0.0000
  O1     O1        0.965652354278031    0.963502287884468    0.778928295693149  0.0000
  O3     O3        0.521936822628613    0.988025741896882    0.781698409379401  0.0000
  O1     O1        0.581323261522403    0.211055038440906    0.106903371365932  0.0000
  O3     O3        0.923167984115355    0.755797516260642    0.088972493951710  0.0000
  O1     O1        0.373000975927632    0.090398056750705    0.857360478716843  0.0000
  O1     O1        0.116345680593817    0.863690857871267    0.854861877360931  0.0000
  O1     O1        0.411570956101326    0.744186391355496    0.853212789838469  0.0000
  O1     O1        0.075289972531436    0.208931931354573    0.851950555538721  0.0000
  O1     O1        0.632363341005455    0.870636943985569    0.117117252240808  0.0000
  O3     O3        0.873314552423207    0.078059391808333    0.104715938272191  0.0000
  O1     O1        0.479280803111407    0.948852350526621    0.038906602302621  0.0000
  O3     O3        0.015176300330529    0.005254650626352    0.039063954720863  0.0000
  O1     O1        0.154150993693291    0.511836003391134    0.326146906164938  0.0000
  O3     O3        0.344593152457019    0.421315810673829    0.316680179865282  0.0000
  O1     O1        0.828912877002841    0.441466950039640    0.630248885965077  0.0000
  O1     O1        0.644925031392164    0.518160854662922    0.640074533998194  0.0000
  O3     O3        0.235065962025583    0.209704948541137    0.259191300610162  0.0000
  O1     O1        0.268458797467977    0.735116337520952    0.265931450399301  0.0000
  O1     O1        0.724037066280121    0.205658340402653    0.701030711838281  0.0000
  O1     O1        0.756469673324905    0.753096244395175    0.697821752073010  0.0000
  O1     O1        0.114832101813981    0.335974574894863    0.100737420130213  0.0000
  O1     O1        0.385483692689035    0.620295421984361    0.103840218034102  0.0000
  O1     O1        0.856973118430141    0.226261690226025    0.852349172133353  0.0000
  O1     O1        0.633546185903927    0.730678298259619    0.862841875981286  0.0000
  O1     O1        0.880481163570296    0.618664447650929    0.846365629423379  0.0000
  O1     O1        0.610389719526239    0.338215876798114    0.860358700090477  0.0000
  O1     O1        0.137422211200837    0.728907361803277    0.106160468658731  0.0000
  O3     O3        0.354077939704379    0.225747180355613    0.110147947657077  0.0000
  O1     O1        0.657972036325970    0.518451156557719    0.081078382730140  0.0000
  O1     O1        0.849277064698926    0.437580797634648    0.070669736809348  0.0000
  O1     O1        0.335495420278773    0.434198581720957    0.886741495942536  0.0000
  O1     O1        0.153827594888722    0.518297779996790    0.882422656958599  0.0000
  O1     O1        0.732399414595508    0.210174154200734    0.017205356545604  0.0000
  O1     O1        0.768817436647248    0.746251963211715    0.012100457498189  0.0000
  O1     O1        0.226374569886001    0.198078304028286    0.938817548748202  0.0000
  O1     O1        0.264204855784147    0.749799243999900    0.948683928338785  0.0000
