data_c00221.vasp
_audit_creation_method             Generated by GULP
_audit_author_name                 Salvador R. G. Balestra
_symmetry_space_group_name_H-M     'P 1             '
_symmetry_Int_Tables_number        1

loop_
_symmetry_equiv_pos_site_id
_symmetry_equiv_pos_as_xyz
_cell_length_a                       17.5123
_cell_length_b                        7.8569
_cell_length_c                       10.3277
_cell_angle_alpha                   90.1301
_cell_angle_beta                    89.9569
_cell_angle_gamma                   88.0449

loop_
_atom_site_label
_atom_site_type_symbol
_atom_site_fract_x
_atom_site_fract_y
_atom_site_fract_z
_atom_site_charge
  Ge     Ge        0.052090000000021    0.000000000000000    0.372269999999958  0.0000
  Ge     Ge        0.449619221125148    0.938137324484829    0.373900238977160  0.0000
  Ge     Ge        0.946117060788756    0.945088004288237    0.622454528987016  0.0000
  Ge     Ge        0.555068388760412    0.002733784524955    0.121178066446721  0.0000
  Ge     Ge        0.943500563690153    0.947472472671867    0.126841994952491  0.0000
  Ge     Ge        0.049555891196731    0.006517946411161    0.876672511121954  0.0000
  Ge     Ge        0.144909238093907    0.311581711787195    0.254524391910645  0.0000
  Ge     Ge        0.356982094008013    0.626216798066615    0.262360948491816  0.0000
  Ge     Ge        0.822391108557413    0.232381694055399    0.698034510270641  0.0000
  Ge     Ge        0.665224759380384    0.710809014782330    0.698974761788638  0.0000
  Ge     Ge        0.847105420775600    0.633454304421059    0.689310509985317  0.0000
  Ge     Ge        0.638529547041082    0.309869098146844    0.701381317911868  0.0000
  Ge     Ge        0.174258220323446    0.711215934057666    0.260148101117393  0.0000
  Ge     Ge        0.326874323593368    0.226607549345347    0.260914856915767  0.0000
  Ge     Ge        0.640751782652015    0.324358291217504    0.011170272934435  0.0000
  Ge     Ge        0.850579961563838    0.635263649564745    0.005750056144481  0.0000
  Ge     Ge        0.332988898120545    0.231727920334667    0.946541621289327  0.0000
  Ge     Ge        0.174153558404623    0.715299075535848    0.947455675673103  0.0000
  Ge     Ge        0.356919211110492    0.633207806339329    0.949162495308288  0.0000
  Ge     Ge        0.150809237283537    0.314993706092285    0.938427218317120  0.0000
  Ge     Ge        0.824235139737262    0.236576303701281    0.010768954911124  0.0000
  Si     Si        0.546284076516144    0.997853236705486    0.627486417847801  0.0000
  Si     Si        0.450258096405973    0.940819886814942    0.875400821966904  0.0000
  Si     Si        0.671197819413766    0.714569544539267    0.008002843210710  0.0000
  O1     O1        0.076720364167929    0.204231533610242    0.336900483475852  0.0000
  O1     O1        0.422597170014054    0.732778265210708    0.351514656112682  0.0000
  O1     O1        0.870943436745946    0.089325914597795    0.601442071328460  0.0000
  O3     O3        0.615094102998612    0.859287758006721    0.607324675180072  0.0000
  O1     O1        0.912009989656354    0.744530425616289    0.601413249224681  0.0000
  O3     O3        0.577046024777219    0.186523298170128    0.611805307836800  0.0000
  O1     O1        0.129307812484678    0.863114408095234    0.353955750056181  0.0000
  O1     O1        0.371874312987051    0.072214417953400    0.350821565239507  0.0000
  O1     O1        0.023960773317729    0.988889768870273    0.532126965691424  0.0000
  O3     O3        0.476957401688578    0.964400191724110    0.533757959972438  0.0000
  O1     O1        0.973420557288461    0.943528184573513    0.285135787435254  0.0000
  O1     O1        0.525903458662265    0.983827011136300    0.278089989267906  0.0000
  O1     O1        0.973592473481664    0.962476361603650    0.783199634781966  0.0000
  O2     O2        0.519474817110633    0.972923538440668    0.777342722610202  0.0000
  O1     O1        0.580039109935097    0.210964559530121    0.104424894375910  0.0000
  O1     O1        0.916899662469127    0.744719210714714    0.088613698980212  0.0000
  O3     O3        0.382751850729263    0.082252739355047    0.854152555382343  0.0000
  O1     O1        0.123779580282583    0.858792593347467    0.855565101942798  0.0000
  O3     O3        0.418611255510233    0.752891703994996    0.857802937419383  0.0000
  O1     O1        0.086626954626217    0.204014629738737    0.849965186505072  0.0000
  O3     O3        0.631739639855197    0.863620879560357    0.092020837693087  0.0000
  O1     O1        0.866151607726183    0.084919078050250    0.107601632405860  0.0000
  O3     O3        0.479069752979385    0.956196160032138    0.022863658675342  0.0000
  O1     O1        0.019837040448434    0.007258077362982    0.036283085864933  0.0000
  O1     O1        0.156711587024267    0.510641093053911    0.318494120041594  0.0000
  O1     O1        0.343434906605344    0.426629385776861    0.322351935795143  0.0000
  O1     O1        0.835800437731172    0.432057372726370    0.633306511723376  0.0000
  O1     O1        0.647448242399446    0.509969124172316    0.639681235772516  0.0000
  O1     O1        0.230506874934723    0.196330757549108    0.260117384402402  0.0000
  O1     O1        0.270828340474815    0.738934175206563    0.260587814987963  0.0000
  O1     O1        0.726004648128520    0.202851547847969    0.703676196037832  0.0000
  O1     O1        0.760610063829406    0.745818919092879    0.685884366216150  0.0000
  O1     O1        0.119177883532396    0.336776222853405    0.095758459118009  0.0000
  O1     O1        0.389091271447625    0.610157063053214    0.105157597229718  0.0000
  O1     O1        0.857423799444095    0.218979363941165    0.854041737113478  0.0000
  O3     O3        0.640155717745138    0.716528038556095    0.861345767874030  0.0000
  O1     O1        0.878059901431187    0.617985267701693    0.846977882803884  0.0000
  O1     O1        0.604913363073857    0.330052503456841    0.856776621497478  0.0000
  O1     O1        0.140278817296016    0.728346204285899    0.104201755701737  0.0000
  O1     O1        0.361864136693328    0.220055266794325    0.105235622844485  0.0000
  O3     O3        0.652885185379517    0.529778833587174    0.067582910912766  0.0000
  O1     O1        0.844336617853092    0.435753579026820    0.069376753484107  0.0000
  O1     O1        0.348254136574120    0.433329888555746    0.886513613330302  0.0000
  O1     O1        0.162399801366991    0.515500439197393    0.881068365597183  0.0000
  O1     O1        0.727424973007454    0.216480352925972    0.008313855557557  0.0000
  O3     O3        0.761625014016986    0.740494155347294    0.008093006327096  0.0000
  O1     O1        0.236803383053018    0.200389617991338    0.940425568153683  0.0000
  O1     O1        0.270598960872852    0.744896188488825    0.952361768590889  0.0000
