data_c00263.vasp
_audit_creation_method             Generated by GULP
_audit_author_name                 Salvador R. G. Balestra
_symmetry_space_group_name_H-M     'P 1             '
_symmetry_Int_Tables_number        1

loop_
_symmetry_equiv_pos_site_id
_symmetry_equiv_pos_as_xyz
_cell_length_a                       17.6139
_cell_length_b                        7.8358
_cell_length_c                       10.1531
_cell_angle_alpha                   90.3784
_cell_angle_beta                    89.9041
_cell_angle_gamma                   91.2948

loop_
_atom_site_label
_atom_site_type_symbol
_atom_site_fract_x
_atom_site_fract_y
_atom_site_fract_z
_atom_site_charge
  Ge     Ge        0.052090000000021    0.000000000000000    0.372269999999958  0.0000
  Ge     Ge        0.552813696206021    0.999904626577488    0.637473133826771  0.0000
  Ge     Ge        0.552496905118355    0.009815297461059    0.148586100798482  0.0000
  Ge     Ge        0.946349974168069    0.069979527939574    0.118348925000631  0.0000
  Ge     Ge        0.447525305630203    0.061931970627501    0.893324455805355  0.0000
  Ge     Ge        0.049118914961902    0.003107921303180    0.860859749310589  0.0000
  Ge     Ge        0.175211112868026    0.283041730685110    0.291690683832399  0.0000
  Ge     Ge        0.330856321796192    0.762782749915005    0.288199015949315  0.0000
  Ge     Ge        0.855663294768677    0.364047285417038    0.733148794380080  0.0000
  Ge     Ge        0.649897718319387    0.688596168790179    0.713436500382097  0.0000
  Ge     Ge        0.830272110391701    0.766781804498155    0.721686006612255  0.0000
  Ge     Ge        0.674082287726308    0.284404893025099    0.722713420306536  0.0000
  Ge     Ge        0.149468825861573    0.684972159654130    0.300428194119813  0.0000
  Ge     Ge        0.356995341081170    0.360726895354147    0.280129852005255  0.0000
  Ge     Ge        0.669336628790563    0.304823771983220    0.040090835992794  0.0000
  Ge     Ge        0.823673314142643    0.781958867409020    0.040906394917315  0.0000
  Ge     Ge        0.350749882301776    0.375586447962994    0.961116221995667  0.0000
  Ge     Ge        0.143502639129637    0.692181564213135    0.979764921242443  0.0000
  Ge     Ge        0.323577774411806    0.775772833949741    0.968476361147004  0.0000
  Ge     Ge        0.171246430626110    0.287686947974327    0.972719407265153  0.0000
  Ge     Ge        0.850126402457376    0.383980054834157    0.053207152410630  0.0000
  Si     Si        0.447673021976148    0.049617884569978    0.394122592748255  0.0000
  Si     Si        0.946094702365789    0.053185793947848    0.614455911015745  0.0000
  Si     Si        0.646617318952926    0.703289507467976    0.026594192570356  0.0000
  O1     O1        0.127121046375717    0.141689114474164    0.390379999807954  0.0000
  O3     O3        0.377119908450573    0.919021621978322    0.379843388640270  0.0000
  O3     O3        0.922589520439812    0.244094853471013    0.652194778979359  0.0000
  O1     O1        0.585835208179775    0.796808363779295    0.620644623309948  0.0000
  O3     O3        0.876276504929658    0.920582653841870    0.628824696354975  0.0000
  O1     O1        0.627547975521753    0.142728876525735    0.621013825706632  0.0000
  O1     O1        0.085856951879388    0.798822371797276    0.392697432557329  0.0000
  O3     O3        0.424543576443059    0.240822596271579    0.358235248451350  0.0000
  O3     O3        0.973190474712963    0.049660352560422    0.463036984601776  0.0000
  O3     O3        0.474518096097224    0.046212391436968    0.545638223595681  0.0000
  O1     O1        0.021692017432473    0.015975207622211    0.210502982680649  0.0000
  O3     O3        0.520425471762654    0.991856026142880    0.309893889093640  0.0000
  O3     O3        0.018601462322427    0.996765999196539    0.698433142648967  0.0000
  O1     O1        0.523754586127875    0.017517801028687    0.799648458619541  0.0000
  O1     O1        0.621582847350531    0.167351291249497    0.142278169472163  0.0000
  O1     O1        0.869081630619706    0.931620324285203    0.135027352887602  0.0000
  O1     O1        0.413383969737298    0.263399168102940    0.867622482721800  0.0000
  O1     O1        0.074677498466099    0.798602496108196    0.898102840930151  0.0000
  O1     O1        0.372846777263580    0.917843512578513    0.873450134402359  0.0000
  O1     O1        0.125920526798284    0.140336926548837    0.874541797334014  0.0000
  O3     O3        0.585323873365658    0.809850213499530    0.106147424069610  0.0000
  O1     O1        0.912975478467175    0.272133775222855    0.145561481107122  0.0000
  O1     O1        0.475683394376434    0.058286416300973    0.056295234977262  0.0000
  O1     O1        0.975015661056553    0.067336198950697    0.955424050925940  0.0000
  O1     O1        0.161702751612262    0.484060075403014    0.357733959016177  0.0000
  O1     O1        0.348352886784636    0.561715986152937    0.347771693995985  0.0000
  O1     O1        0.847182447483328    0.563186120779928    0.664670811068592  0.0000
  O1     O1        0.660452809170077    0.485420515028974    0.658965106715125  0.0000
  O1     O1        0.271169770694724    0.251319130401570    0.287254100063488  0.0000
  O1     O1        0.235088595167926    0.795803810603819    0.297119660687426  0.0000
  O1     O1        0.770013445733179    0.253813395109059    0.728320151134988  0.0000
  O1     O1        0.734823172892885    0.800798552848980    0.710570757329948  0.0000
  O1     O1        0.140053288892498    0.269210465755409    0.133321718559430  0.0000
  O1     O1        0.358729382713607    0.780531589486827    0.126936339262754  0.0000
  O1     O1        0.882041308002413    0.399507701746846    0.892716069616991  0.0000
  O3     O3        0.619899120122829    0.677468949757888    0.876487994668584  0.0000
  O1     O1        0.859086204224101    0.787658699878160    0.882514111999149  0.0000
  O1     O1        0.638668807262827    0.271208417821326    0.881187630818106  0.0000
  O1     O1        0.116900456359011    0.668578517917961    0.141287861492788  0.0000
  O1     O1        0.383511757056481    0.395389703598913    0.120710188950356  0.0000
  O3     O3        0.656557017117815    0.516649482567950    0.087888517066671  0.0000
  O1     O1        0.839778572603686    0.586321978159836    0.111358046027722  0.0000
  O1     O1        0.335791023109951    0.574174381548625    0.901602441949774  0.0000
  O1     O1        0.155292973922249    0.491274846228567    0.916486247219866  0.0000
  O1     O1        0.764791831386614    0.271777424931962    0.048007855132314  0.0000
  O3     O3        0.726529882617633    0.809017999200837    0.030176774378473  0.0000
  O1     O1        0.267069619422604    0.257200052870101    0.970607047264643  0.0000
  O1     O1        0.227727770971252    0.809398508801765    0.972874334444754  0.0000
