data_c00207.vasp
_audit_creation_method             Generated by GULP
_audit_author_name                 Salvador R. G. Balestra
_symmetry_space_group_name_H-M     'P 1             '
_symmetry_Int_Tables_number        1

loop_
_symmetry_equiv_pos_site_id
_symmetry_equiv_pos_as_xyz
_cell_length_a                       17.5731
_cell_length_b                        7.8644
_cell_length_c                       10.1624
_cell_angle_alpha                   91.1114
_cell_angle_beta                    89.4270
_cell_angle_gamma                   87.9255

loop_
_atom_site_label
_atom_site_type_symbol
_atom_site_fract_x
_atom_site_fract_y
_atom_site_fract_z
_atom_site_charge
  Ge     Ge        0.052090000000021    0.000000000000000    0.372269999999958  0.0000
  Ge     Ge        0.443553952672211    0.948835446123582    0.384442496602641  0.0000
  Ge     Ge        0.944720497690386    0.938048888465041    0.622346521493431  0.0000
  Ge     Ge        0.553049244304549    0.995484540480884    0.132481264296615  0.0000
  Ge     Ge        0.945630195309198    0.931892964789966    0.125816170965179  0.0000
  Ge     Ge        0.452446466846316    0.922732558176322    0.875375778999767  0.0000
  Ge     Ge        0.051051428647051    0.989268807906642    0.873674395973091  0.0000
  Ge     Ge        0.141336344067244    0.317405206658127    0.259985053294243  0.0000
  Ge     Ge        0.350133580349128    0.633561679280452    0.263424741210919  0.0000
  Ge     Ge        0.665870513621325    0.696684366418458    0.697030970881345  0.0000
  Ge     Ge        0.849680483151607    0.622166737371572    0.691106036953953  0.0000
  Ge     Ge        0.646257326554651    0.298360487833822    0.689885481938009  0.0000
  Ge     Ge        0.324682171584326    0.235115107483433    0.270673654807671  0.0000
  Ge     Ge        0.643345358008643    0.305103238254859    0.010253879084620  0.0000
  Ge     Ge        0.855342961582558    0.619225226697145    0.007139481906755  0.0000
  Ge     Ge        0.328610110875443    0.214027296185858    0.953066523780891  0.0000
  Ge     Ge        0.175224700614226    0.701018934970767    0.942688814073678  0.0000
  Ge     Ge        0.354788324774367    0.615455590438728    0.942212959026019  0.0000
  Ge     Ge        0.147526950206047    0.301204314551137    0.943621677463233  0.0000
  Ge     Ge        0.672473158323178    0.704055525189598    0.015365481891191  0.0000
  Ge     Ge        0.824272508458487    0.219012528160249    0.002944874648361  0.0000
  Si     Si        0.551813568508492    0.986425764157906    0.625806919502315  0.0000
  Si     Si        0.825318761514063    0.229514144885971    0.689358262815251  0.0000
  Si     Si        0.170615755070910    0.708731101750276    0.255967103401175  0.0000
  O1     O1        0.078485114295909    0.205916448747489    0.352066795936944  0.0000
  O1     O1        0.413285870268806    0.747863901462326    0.352008747287094  0.0000
  O3     O3        0.872736258472560    0.092560925721968    0.600358934164800  0.0000
  O3     O3        0.617775252561223    0.842112838920241    0.599456924835902  0.0000
  O1     O1        0.907966720532181    0.741027617954633    0.595357684815708  0.0000
  O3     O3        0.585684497328873    0.170556449186470    0.602020438294619  0.0000
  O3     O3        0.127759701578181    0.859612501047055    0.337524611899424  0.0000
  O1     O1        0.367584909888592    0.088630672596531    0.370649264423619  0.0000
  O1     O1        0.024964670617553    0.975645400363914    0.534183010903276  0.0000
  O3     O3        0.475940468622853    0.955370404125462    0.545956487945550  0.0000
  O1     O1        0.971093795257107    0.954328660448330    0.287757846527550  0.0000
  O1     O1        0.520968225889689    0.999841472781661    0.292365635848079  0.0000
  O1     O1        0.972750069586136    0.946932185824611    0.785011689899083  0.0000
  O3     O3        0.529370161350194    0.972215700534958    0.780536287666389  0.0000
  O1     O1        0.575819150350135    0.199875728437452    0.094378067002462  0.0000
  O1     O1        0.920478953507114    0.724940766691873    0.098320113773740  0.0000
  O1     O1        0.377823494937408    0.067698623045413    0.857107933880388  0.0000
  O1     O1        0.124063968821789    0.839065362117523    0.849146464088431  0.0000
  O1     O1        0.419815746382776    0.721016444237845    0.850554325440996  0.0000
  O1     O1        0.086781083464313    0.186969863106153    0.848550827539690  0.0000
  O1     O1        0.631276221305729    0.859434802279149    0.114581139520394  0.0000
  O1     O1        0.868577857444732    0.063188502998786    0.089697909245972  0.0000
  O1     O1        0.480047828252546    0.927794732570655    0.037382835151529  0.0000
  O1     O1        0.024231511185960    0.984220511588093    0.037489841609024  0.0000
  O3     O3        0.151592669608230    0.525817453331877    0.315980837846321  0.0000
  O1     O1        0.342442735747041    0.436413952842887    0.329128767526928  0.0000
  O3     O3        0.838545361190653    0.416810977835423    0.632418377464663  0.0000
  O1     O1        0.649958726502262    0.497965166533144    0.628678906448334  0.0000
  O1     O1        0.228423282413551    0.211933301798652    0.266884642482242  0.0000
  O3     O3        0.260746909496837    0.736055488269866    0.260502350036736  0.0000
  O3     O3        0.735711687030843    0.196476198645373    0.688347617104025  0.0000
  O1     O1        0.761810189923259    0.726173562971593    0.696624018194810  0.0000
  O1     O1        0.110555440050696    0.321790613201469    0.101166902360918  0.0000
  O1     O1        0.381990011483980    0.607489676551550    0.104466109579834  0.0000
  O3     O3        0.854260838725662    0.219213944893725    0.839333431722748  0.0000
  O1     O1        0.635679387145125    0.712797968981667    0.858630320820586  0.0000
  O1     O1        0.886642793087657    0.611584386608704    0.846072697042003  0.0000
  O1     O1        0.615553663028380    0.324291053570841    0.849349525328102  0.0000
  O3     O3        0.143172849032432    0.710285990319645    0.105350199655390  0.0000
  O1     O1        0.360650929644307    0.206382687991337    0.113020243119307  0.0000
  O1     O1        0.655107107506500    0.504801430452728    0.075192082797134  0.0000
  O1     O1        0.844642267410040    0.417933538390864    0.064704971040324  0.0000
  O1     O1        0.343025493622672    0.412591377076680    0.887955967050292  0.0000
  O1     O1        0.161837595414799    0.497124742266041    0.882299429972256  0.0000
  O1     O1        0.728533440364376    0.189912792473947    0.011724485983296  0.0000
  O1     O1        0.768678600718908    0.728532184081172    0.009464288746493  0.0000
  O1     O1        0.232581034640154    0.185083862886035    0.954457896147374  0.0000
  O1     O1        0.270327372115045    0.735299379807222    0.937231475227688  0.0000
