data_c00209.vasp
_audit_creation_method             Generated by GULP
_audit_author_name                 Salvador R. G. Balestra
_symmetry_space_group_name_H-M     'P 1             '
_symmetry_Int_Tables_number        1

loop_
_symmetry_equiv_pos_site_id
_symmetry_equiv_pos_as_xyz
_cell_length_a                       17.6033
_cell_length_b                        7.8316
_cell_length_c                       10.1856
_cell_angle_alpha                   89.5311
_cell_angle_beta                    91.0811
_cell_angle_gamma                   91.6181

loop_
_atom_site_label
_atom_site_type_symbol
_atom_site_fract_x
_atom_site_fract_y
_atom_site_fract_z
_atom_site_charge
  Ge     Ge        0.052090000000021    0.000000000000000    0.372269999999958  0.0000
  Ge     Ge        0.440642717376809    0.050618420456674    0.411470359177916  0.0000
  Ge     Ge        0.939166897039498    0.057896557479937    0.611029833115750  0.0000
  Ge     Ge        0.553380044308158    0.003608623181858    0.171156427595407  0.0000
  Ge     Ge        0.949364783929798    0.068075948665368    0.115479204728412  0.0000
  Ge     Ge        0.448302356163310    0.069646647153583    0.911736800644738  0.0000
  Ge     Ge        0.049570215187264    0.007029430686140    0.861844605292839  0.0000
  Ge     Ge        0.173063866683390    0.288312607994733    0.298345915464559  0.0000
  Ge     Ge        0.844747078366988    0.368534621069178    0.729517173591198  0.0000
  Ge     Ge        0.636661126879464    0.693183513702101    0.732005072670729  0.0000
  Ge     Ge        0.818699931240956    0.771033959934999    0.726097843553796  0.0000
  Ge     Ge        0.662497011936526    0.290236683884491    0.733811340707203  0.0000
  Ge     Ge        0.149531804413508    0.685150578952509    0.308613138745933  0.0000
  Ge     Ge        0.672243440381501    0.289867658211285    0.052375223935732  0.0000
  Ge     Ge        0.823870403597940    0.781858782299149    0.043149215905185  0.0000
  Ge     Ge        0.351183414480398    0.377188770784094    0.982398191797466  0.0000
  Ge     Ge        0.144063700371377    0.697299999848549    0.988109340778583  0.0000
  Ge     Ge        0.323806635054400    0.783785637494337    0.989520508598248  0.0000
  Ge     Ge        0.171329731590089    0.292967488400805    0.980089459894579  0.0000
  Ge     Ge        0.643613106874926    0.693366163930301    0.049436299065222  0.0000
  Ge     Ge        0.851576935592860    0.380282580221200    0.048903861253176  0.0000
  Si     Si        0.543981482700242    0.006081318912230    0.660335881694828  0.0000
  Si     Si        0.327738078682837    0.758200931093612    0.299182303630363  0.0000
  Si     Si        0.351730170880522    0.364154518044462    0.290913895072212  0.0000
  O1     O1        0.128068013902686    0.140823709969939    0.395326032370839  0.0000
  O3     O3        0.372367562790187    0.888905727257127    0.394345523898154  0.0000
  O1     O1        0.910117746368333    0.260285723197543    0.642142512417862  0.0000
  O3     O3        0.573592342385713    0.816004641921019    0.640719233570646  0.0000
  O1     O1        0.863589811468670    0.918066116849722    0.627314363330682  0.0000
  O3     O3        0.612202117473566    0.144067616817444    0.637161482695157  0.0000
  O1     O1        0.087858284502072    0.800685242275748    0.398333664883234  0.0000
  O3     O3        0.407508466535706    0.253910637613529    0.381894376137939  0.0000
  O1     O1        0.971470952651104    0.046463700410824    0.451957571143845  0.0000
  O3     O3        0.469243565156503    0.045180784071394    0.575968701724970  0.0000
  O1     O1        0.026668928993543    0.017281509714171    0.207119966588285  0.0000
  O1     O1        0.521499441307012    0.012789307209479    0.329130053732981  0.0000
  O1     O1        0.018635024829766    0.004560772265797    0.700919384146134  0.0000
  O3     O3        0.522561460148659    0.023994057407575    0.813962691668226  0.0000
  O1     O1        0.630150778286319    0.141240172718970    0.152199587507861  0.0000
  O1     O1        0.874528332030672    0.924306727944765    0.137344947869240  0.0000
  O1     O1        0.414985516064584    0.272621883292002    0.889895174104804  0.0000
  O1     O1        0.075427832303046    0.802911938741896    0.902861403101318  0.0000
  O1     O1        0.373105547698375    0.925032880261285    0.894649778456231  0.0000
  O1     O1        0.125378354728821    0.148026740646074    0.880649535530444  0.0000
  O1     O1        0.579854551345860    0.798270549217491    0.140859973359684  0.0000
  O1     O1        0.917050494326017    0.270826791242939    0.140279769413613  0.0000
  O1     O1        0.478746387173334    0.059578223271397    0.072500725064552  0.0000
  O1     O1        0.974170435232754    0.066643404087998    0.952115451770205  0.0000
  O1     O1        0.154848462976667    0.482666101152984    0.367676616213132  0.0000
  O2     O2        0.341400844609493    0.559242241607259    0.340888157529581  0.0000
  O1     O1        0.831916492505528    0.569455072832056    0.665774716465539  0.0000
  O1     O1        0.645225876182324    0.492072385372365    0.671461575607963  0.0000
  O3     O3        0.270234479538499    0.265850565175160    0.291453214908296  0.0000
  O3     O3        0.238331985420807    0.788874749186972    0.306063859970664  0.0000
  O1     O1        0.758470297899876    0.257715187497589    0.728034196620734  0.0000
  O1     O1        0.722920066501588    0.802231584779498    0.731387232381620  0.0000
  O1     O1        0.139291027338447    0.275076776972768    0.138784237188488  0.0000
  O3     O3        0.356376059820342    0.792871950212453    0.152217738736790  0.0000
  O1     O1        0.877921668273369    0.397168151588646    0.887053262483117  0.0000
  O1     O1        0.608254964641210    0.672252108352692    0.891584409308533  0.0000
  O1     O1        0.854958178216534    0.792380150337678    0.883414457805154  0.0000
  O1     O1        0.634929825084085    0.277359918904147    0.894911607296378  0.0000
  O1     O1        0.117648572599249    0.673271151408574    0.148545168408918  0.0000
  O3     O3        0.383635338297612    0.375768218740737    0.145444093482042  0.0000
  O1     O1        0.659152072347699    0.493287749797604    0.110920118277012  0.0000
  O1     O1        0.839337425666183    0.579891018670815    0.107404539600139  0.0000
  O1     O1        0.339215747698918    0.581072345787626    0.931077577460323  0.0000
  O1     O1        0.156218487506699    0.498471851284518    0.924656886163487  0.0000
  O1     O1        0.767932289260314    0.259686787620216    0.047161336481470  0.0000
  O1     O1        0.727900715195614    0.811670430602720    0.044174956235577  0.0000
  O1     O1        0.266991744391373    0.260647660370222    0.977984040739811  0.0000
  O1     O1        0.228315382556220    0.816035955397523    0.983227863005398  0.0000
