data_c00267.vasp
_audit_creation_method             Generated by GULP
_audit_author_name                 Salvador R. G. Balestra
_symmetry_space_group_name_H-M     'P 1             '
_symmetry_Int_Tables_number        1

loop_
_symmetry_equiv_pos_site_id
_symmetry_equiv_pos_as_xyz
_cell_length_a                       17.7250
_cell_length_b                        7.9135
_cell_length_c                       10.2949
_cell_angle_alpha                   89.9940
_cell_angle_beta                    89.4830
_cell_angle_gamma                   89.8980

loop_
_atom_site_label
_atom_site_type_symbol
_atom_site_fract_x
_atom_site_fract_y
_atom_site_fract_z
_atom_site_charge
  Ge     Ge        0.052090000000021    0.000000000000000    0.372269999999958  0.0000
  Ge     Ge        0.551038824385601    0.025782156984477    0.610179502968756  0.0000
  Ge     Ge        0.550838702935055    0.029677437025844    0.115678956122184  0.0000
  Ge     Ge        0.944067431003240    0.999808978973960    0.122513313964562  0.0000
  Ge     Ge        0.051803999590700    0.005931173604211    0.868051872719825  0.0000
  Ge     Ge        0.170296100796527    0.286361785495707    0.254568793846689  0.0000
  Ge     Ge        0.334639236703644    0.735220640370115    0.254947638635799  0.0000
  Ge     Ge        0.834485015750069    0.288594947579638    0.690800599073870  0.0000
  Ge     Ge        0.670039056337167    0.740668755343654    0.686847840618614  0.0000
  Ge     Ge        0.852075613838230    0.691201920255116    0.691324281262320  0.0000
  Ge     Ge        0.652396924866483    0.337596715782448    0.686782688563454  0.0000
  Ge     Ge        0.152870671198489    0.691555171631833    0.257482041527464  0.0000
  Ge     Ge        0.352265087535637    0.332310549349660    0.255556575735487  0.0000
  Ge     Ge        0.646095684046992    0.342921222227729    0.002743995842531  0.0000
  Ge     Ge        0.850543325623072    0.685680780112117    0.006506004994052  0.0000
  Ge     Ge        0.353109659127007    0.328212893149574    0.940822741122855  0.0000
  Ge     Ge        0.155093046179258    0.694042277905433    0.940730923209080  0.0000
  Ge     Ge        0.337337786956803    0.731145375487523    0.938583540742206  0.0000
  Ge     Ge        0.170658036057029    0.289461965028132    0.939756610720543  0.0000
  Ge     Ge        0.669598503550513    0.746229334278462    0.001474385405520  0.0000
  Ge     Ge        0.826881598952002    0.283936849205225    0.005968042985481  0.0000
  Si     Si        0.446139112342924    0.023684828990917    0.365074941338070  0.0000
  Si     Si        0.948589289581853    0.002529426172900    0.621014857501271  0.0000
  Si     Si        0.449654816996822    0.016304579952337    0.865109582907289  0.0000
  O1     O1        0.121686341922195    0.146561403598177    0.349178863719130  0.0000
  O3     O3        0.382034485414720    0.884956274219020    0.343007213423335  0.0000
  O3     O3        0.886222669785944    0.147244652758295    0.597575395945083  0.0000
  O1     O1        0.619710420366137    0.874621904729303    0.590092408285373  0.0000
  O3     O3        0.911887511587253    0.818819213907346    0.600361926648699  0.0000
  O1     O1        0.592442582411074    0.219586949918392    0.593792048062635  0.0000
  O1     O1        0.089259517164687    0.802261191596135    0.349407680657279  0.0000
  O3     O3        0.413568025270997    0.211077634359777    0.345364814715952  0.0000
  O3     O3        0.022039507058183    0.022677539862405    0.532362342117113  0.0000
  O3     O3        0.474452760707474    0.003028444539925    0.511765224422131  0.0000
  O1     O1        0.974114173805643    0.028352437493267    0.278704363644915  0.0000
  O3     O3        0.518329178565495    0.996352307225645    0.272014282435457  0.0000
  O3     O3        0.974239224490196    0.022398575363979    0.770689782526998  0.0000
  O3     O3        0.519934192192171    0.998954621989773    0.769620188169279  0.0000
  O1     O1        0.581990586191463    0.232715553532204    0.094412726564299  0.0000
  O1     O1        0.913480063022295    0.796286472249591    0.097610220378609  0.0000
  O3     O3        0.412232668008566    0.200716283474918    0.849001724263716  0.0000
  O1     O1        0.093920793101134    0.811622802163894    0.850629077919203  0.0000
  O3     O3        0.387264287885253    0.871394392118846    0.842799618730470  0.0000
  O1     O1        0.120148582432435    0.157266450863716    0.843091078275090  0.0000
  O1     O1        0.624545685661793    0.892299746517647    0.095661955497941  0.0000
  O1     O1        0.870583183365520    0.137260702648321    0.099626020316075  0.0000
  O3     O3        0.477115978015914    0.988356927067959    0.012635266505836  0.0000
  O1     O1        0.020275781619540    0.039661386618064    0.024201563158402  0.0000
  O1     O1        0.159509778176087    0.488788742369564    0.313397070705017  0.0000
  O1     O1        0.347043580967488    0.533852059543503    0.316173367177510  0.0000
  O1     O1        0.847590889209880    0.490161048519568    0.630275244041432  0.0000
  O1     O1        0.660663965501957    0.538196581739904    0.627752730382411  0.0000
  O1     O1        0.264834490982235    0.239881676496940    0.255472830466058  0.0000
  O1     O1        0.240606228693676    0.784674799810168    0.260592997266040  0.0000
  O1     O1        0.740078087205821    0.242167060592593    0.686733127498021  0.0000
  O1     O1        0.764668492036541    0.785750690188946    0.689149701223264  0.0000
  O1     O1        0.138178623318353    0.280703699313044    0.098004026725804  0.0000
  O1     O1        0.366282900101704    0.730528347902807    0.097492265114657  0.0000
  O1     O1        0.862320095835385    0.282554601580395    0.850014935699525  0.0000
  O1     O1        0.637636401562441    0.752163378112904    0.844656048206168  0.0000
  O1     O1        0.883204555554054    0.677925854937570    0.848392807448736  0.0000
  O1     O1        0.617896989785712    0.346492348629471    0.843308979532607  0.0000
  O1     O1        0.122871643668381    0.692891600942652    0.099060451332627  0.0000
  O1     O1        0.385033975105952    0.336960839870543    0.097907141201748  0.0000
  O1     O1        0.654322462100166    0.544656327443911    0.060291246290464  0.0000
  O1     O1        0.840481569429168    0.485118164371565    0.066299589702632  0.0000
  O1     O1        0.349477359499295    0.528921234121270    0.878841153620326  0.0000
  O1     O1        0.161336893143647    0.492699870999800    0.882424250665173  0.0000
  O1     O1        0.732173889520270    0.242350554001498    0.004448996863508  0.0000
  O1     O1        0.764542496366381    0.786281104337380    0.003563502381063  0.0000
  O1     O1        0.264772998021463    0.239398278908651    0.941509914787358  0.0000
  O1     O1        0.243566982586651    0.783771882728568    0.937747029921080  0.0000
