data_c00213.vasp
_audit_creation_method             Generated by GULP
_audit_author_name                 Salvador R. G. Balestra
_symmetry_space_group_name_H-M     'P 1             '
_symmetry_Int_Tables_number        1

loop_
_symmetry_equiv_pos_site_id
_symmetry_equiv_pos_as_xyz
_cell_length_a                       17.5962
_cell_length_b                        7.8360
_cell_length_c                       10.2690
_cell_angle_alpha                   89.9832
_cell_angle_beta                    91.0486
_cell_angle_gamma                   91.3368

loop_
_atom_site_label
_atom_site_type_symbol
_atom_site_fract_x
_atom_site_fract_y
_atom_site_fract_z
_atom_site_charge
  Ge     Ge        0.052090000000021    0.000000000000000    0.372269999999958  0.0000
  Ge     Ge        0.449433167707024    0.050374156884775    0.403879087764234  0.0000
  Ge     Ge        0.943837878747412    0.057166642325551    0.619592974432823  0.0000
  Ge     Ge        0.555797624941359    0.009526395035448    0.157369794714148  0.0000
  Ge     Ge        0.951029729024591    0.070542097854269    0.111761939770484  0.0000
  Ge     Ge        0.446147972323264    0.065734114624881    0.905186852853010  0.0000
  Ge     Ge        0.174442257737389    0.282620429492307    0.292485569863232  0.0000
  Ge     Ge        0.326427943907122    0.767049820140874    0.292397087581625  0.0000
  Ge     Ge        0.847225769418031    0.367714430139875    0.734314739447133  0.0000
  Ge     Ge        0.642314168137088    0.692589944391812    0.727415768536979  0.0000
  Ge     Ge        0.822523727670733    0.769838831721797    0.724650145995626  0.0000
  Ge     Ge        0.665397512145058    0.288431050972196    0.736042138410287  0.0000
  Ge     Ge        0.145826771772277    0.683927941411548    0.298130532223075  0.0000
  Ge     Ge        0.355086834586618    0.364846177705237    0.285473050933636  0.0000
  Ge     Ge        0.670698446701583    0.307001113391988    0.050947648545402  0.0000
  Ge     Ge        0.825180627346421    0.783852065959387    0.040691618582903  0.0000
  Ge     Ge        0.347195519487600    0.377129361993538    0.968101064712362  0.0000
  Ge     Ge        0.140686197644793    0.697857839169532    0.983097365865681  0.0000
  Ge     Ge        0.322478197376688    0.778007687313287    0.977490290330393  0.0000
  Ge     Ge        0.166363059528209    0.293390447635298    0.975913001891799  0.0000
  Ge     Ge        0.851796746639706    0.385324135588131    0.052368065985166  0.0000
  Si     Si        0.547492240931983    0.003885499771728    0.659986914860060  0.0000
  Si     Si        0.049826406022346    0.007013180224129    0.864448945927906  0.0000
  Si     Si        0.648004870359107    0.702955411323456    0.037132681340242  0.0000
  O1     O1        0.127675713851242    0.141480444646858    0.390993436326016  0.0000
  O1     O1        0.372258910577891    0.915200790826719    0.388946259848633  0.0000
  O1     O1        0.913462307713247    0.258495917065701    0.649757031547985  0.0000
  O3     O3        0.575825207104331    0.811448687208419    0.642894095211143  0.0000
  O1     O1        0.869725841153781    0.913754671897795    0.629139192218268  0.0000
  O3     O3        0.616849705625254    0.138991041255551    0.640642773738841  0.0000
  O1     O1        0.084004149102826    0.796200949363135    0.391439697464836  0.0000
  O1     O1        0.424248101657381    0.255195021064267    0.366838533066812  0.0000
  O1     O1        0.975859348490944    0.049004421333649    0.462230020189626  0.0000
  O3     O3        0.477079078396078    0.044117592309900    0.567264559157346  0.0000
  O1     O1        0.024483264648882    0.017622254433332    0.209402184282207  0.0000
  O1     O1        0.525071558900559    0.988911257295159    0.314393426372208  0.0000
  O3     O3        0.022085543750636    0.004456130301882    0.714681851256215  0.0000
  O3     O3        0.521917886888974    0.023475190036077    0.809684653601822  0.0000
  O1     O1        0.624774220712256    0.167812738327677    0.152136177896981  0.0000
  O1     O1        0.872784716010093    0.935761815952229    0.129331691029947  0.0000
  O1     O1        0.410373791376680    0.265474920950854    0.878806020462198  0.0000
  O3     O3        0.073416595128316    0.815580311060518    0.901135753162021  0.0000
  O1     O1        0.371633835307994    0.921419476865293    0.884925077367063  0.0000
  O3     O3        0.120281199689793    0.139622622907338    0.881799599761780  0.0000
  O3     O3        0.587285261987128    0.810057976074956    0.113554106434487  0.0000
  O1     O1        0.918869507094003    0.273478647808103    0.137110042713415  0.0000
  O1     O1        0.478035478193783    0.061051050881223    0.064633375072374  0.0000
  O3     O3        0.979386889502640    0.064378346428408    0.950151258828838  0.0000
  O1     O1        0.160375156273093    0.483991827209383    0.356070520638179  0.0000
  O1     O1        0.342683895284872    0.564006315319948    0.349910881541837  0.0000
  O1     O1        0.834698187309045    0.565862984909078    0.667710021396981  0.0000
  O1     O1        0.648287912175302    0.488645547732178    0.671383820873924  0.0000
  O1     O1        0.270239701060596    0.249119938352499    0.290045908881978  0.0000
  O1     O1        0.230435737501620    0.798997548383811    0.292013882413140  0.0000
  O1     O1        0.761391087152147    0.255864474199555    0.733047003426960  0.0000
  O1     O1        0.726677949899073    0.804620538741798    0.718595712611859  0.0000
  O1     O1        0.138322706435037    0.275069899684907    0.134883302667300  0.0000
  O1     O1        0.357657382363557    0.787926027541780    0.135072643010110  0.0000
  O1     O1        0.877369117453777    0.399756039916099    0.891574498460724  0.0000
  O3     O3        0.618844321233742    0.670796073028028    0.889878951183042  0.0000
  O1     O1        0.855320454958921    0.792169590557496    0.882383234705537  0.0000
  O1     O1        0.636116192962497    0.276449194662184    0.894921896126781  0.0000
  O1     O1        0.111922498596449    0.668557384110021    0.140017517455859  0.0000
  O1     O1        0.379908543338440    0.394648148160947    0.126672632492957  0.0000
  O3     O3        0.659478770591268    0.517791383294814    0.100835657666870  0.0000
  O1     O1        0.843970446980689    0.588104289827629    0.109602970712659  0.0000
  O1     O1        0.334210149437011    0.578043001321694    0.910565950281584  0.0000
  O1     O1        0.148653722919892    0.496443760376633    0.918860628520144  0.0000
  O1     O1        0.766336320061493    0.273393494177340    0.055613865166594  0.0000
  O3     O3        0.727593235527549    0.810092914678040    0.037370903201918  0.0000
  O1     O1        0.262160226781500    0.262859659099163    0.970586913912836  0.0000
  O1     O1        0.226209696355964    0.808567966746602    0.980062875729763  0.0000
