data_c00231.vasp
_audit_creation_method             Generated by GULP
_audit_author_name                 Salvador R. G. Balestra
_symmetry_space_group_name_H-M     'P 1             '
_symmetry_Int_Tables_number        1

loop_
_symmetry_equiv_pos_site_id
_symmetry_equiv_pos_as_xyz
_cell_length_a                       17.5420
_cell_length_b                        7.8381
_cell_length_c                       10.3034
_cell_angle_alpha                   90.6935
_cell_angle_beta                    90.9690
_cell_angle_gamma                   88.5040

loop_
_atom_site_label
_atom_site_type_symbol
_atom_site_fract_x
_atom_site_fract_y
_atom_site_fract_z
_atom_site_charge
  Ge     Ge        0.052090000000021    0.000000000000000    0.372269999999958  0.0000
  Ge     Ge        0.452703729436441    0.944784860508147    0.422904235348596  0.0000
  Ge     Ge        0.947499749774741    0.947434473652880    0.623630661149178  0.0000
  Ge     Ge        0.560960141523870    0.996177303488196    0.178152491245419  0.0000
  Ge     Ge        0.454008582196918    0.925469656258960    0.922738070323837  0.0000
  Ge     Ge        0.058961794451823    0.991023284326725    0.873371066425445  0.0000
  Ge     Ge        0.149646575710620    0.312926715342283    0.303452977493434  0.0000
  Ge     Ge        0.358160706413379    0.631220214751742    0.301369961533913  0.0000
  Ge     Ge        0.827227208010978    0.234607254315914    0.734708330641339  0.0000
  Ge     Ge        0.670963339796275    0.713431653465046    0.748327093429159  0.0000
  Ge     Ge        0.853580943488407    0.635039686176793    0.739173636363709  0.0000
  Ge     Ge        0.645076375353500    0.311291679010262    0.744150547052717  0.0000
  Ge     Ge        0.176726009561199    0.716352592894658    0.298697805923925  0.0000
  Ge     Ge        0.329886606247178    0.228193631975260    0.309603910245735  0.0000
  Ge     Ge        0.654387126549883    0.305435232174962    0.058552672236374  0.0000
  Ge     Ge        0.861195397786976    0.625635086378670    0.053790605986388  0.0000
  Ge     Ge        0.329940598360212    0.213649654789103    0.995233548719749  0.0000
  Ge     Ge        0.175529570951036    0.694889502464719    0.984579794917857  0.0000
  Ge     Ge        0.356957674796594    0.612381352528977    0.984280074758791  0.0000
  Ge     Ge        0.679902593985043    0.708308076056928    0.062827742482824  0.0000
  Ge     Ge        0.836606004126687    0.224641343680416    0.048752174364779  0.0000
  Si     Si        0.552030110428603    0.996830567978166    0.675655553905330  0.0000
  Si     Si        0.956227021959666    0.936584907004978    0.116412522175753  0.0000
  Si     Si        0.152149455998075    0.298305213951896    0.995379932404746  0.0000
  O1     O1        0.083113845652077    0.205357496892294    0.388046719678147  0.0000
  O1     O1        0.426143032649730    0.740595329735133    0.386864816551174  0.0000
  O1     O1        0.870985415582109    0.085420140736683    0.637836263927190  0.0000
  O3     O3        0.621771393117699    0.861952013582610    0.654426155838424  0.0000
  O1     O1        0.919525305173515    0.744363147320948    0.655249825198376  0.0000
  O3     O3        0.580340164413574    0.188252615161205    0.657177261267897  0.0000
  O1     O1        0.128091378043109    0.859785273118852    0.394393445972670  0.0000
  O1     O1        0.376402484933472    0.083117125662221    0.406540893216570  0.0000
  O1     O1        0.976684092277119    0.956469408208957    0.464920502852679  0.0000
  O3     O3        0.480435601403665    0.954181156017957    0.585840749665811  0.0000
  O3     O3        0.026753244385141    0.976076279952425    0.208547251165125  0.0000
  O1     O1        0.529710476186974    0.000689818777722    0.335037688318127  0.0000
  O1     O1        0.025194302974214    0.003865561616204    0.716631197208139  0.0000
  O3     O3        0.527808377125102    0.977836087846691    0.826005903816645  0.0000
  O1     O1        0.589095602086732    0.199064271385478    0.144816892740558  0.0000
  O3     O3        0.926097816334694    0.747044513287212    0.140327391567586  0.0000
  O1     O1        0.375864557881936    0.062041733206367    0.904713113188115  0.0000
  O1     O1        0.127649096692731    0.831921464642571    0.882124697090210  0.0000
  O1     O1        0.422074283440509    0.722173820606678    0.897896721670478  0.0000
  O3     O3        0.091890990567300    0.191524490710601    0.912452372704175  0.0000
  O1     O1        0.637094988909326    0.855668277854257    0.162374111881455  0.0000
  O3     O3        0.887288946989024    0.074302664478347    0.137747719180374  0.0000
  O1     O1        0.485748150796523    0.936598502299293    0.081542415264001  0.0000
  O3     O3        0.981555299302690    0.944210352792366    0.966582706228754  0.0000
  O1     O1        0.161146582307498    0.515360260186473    0.359585744821264  0.0000
  O1     O1        0.344888758615716    0.433294484159751    0.364983931527672  0.0000
  O1     O1        0.839861386768821    0.435562469877431    0.673933005938923  0.0000
  O1     O1        0.652706057247844    0.512499846452104    0.684862110218885  0.0000
  O1     O1        0.233743501922408    0.195419924390781    0.311609321136402  0.0000
  O1     O1        0.273151579039906    0.747521179912777    0.302387120222967  0.0000
  O1     O1        0.731279536088050    0.202162591245225    0.741273900465149  0.0000
  O1     O1        0.767163989437128    0.745740940622705    0.741844097338192  0.0000
  O3     O3        0.122796142737735    0.327862472475234    0.140735243391636  0.0000
  O1     O1        0.386332627471196    0.600721453196652    0.144434877055085  0.0000
  O1     O1        0.864527061318013    0.217570715826967    0.889756243030784  0.0000
  O1     O1        0.642477622773399    0.724594888852077    0.907380624439275  0.0000
  O1     O1        0.886936527753031    0.603233404540186    0.894479494144213  0.0000
  O1     O1        0.619137270344799    0.331325344671150    0.903242560332212  0.0000
  O1     O1        0.144719904832535    0.728491126549412    0.139785584824164  0.0000
  O1     O1        0.362686902528060    0.204092426210962    0.153591378377597  0.0000
  O1     O1        0.667755904003083    0.505911672360883    0.121498416276873  0.0000
  O1     O1        0.853456462385290    0.425221080303559    0.114384603101407  0.0000
  O1     O1        0.348050571898059    0.408692834902842    0.928045155577881  0.0000
  O3     O3        0.163418820556192    0.483425424731425    0.934613166215310  0.0000
  O1     O1        0.740285025089753    0.192932668397193    0.055205597515985  0.0000
  O1     O1        0.775868403498075    0.738541033055607    0.055063846380862  0.0000
  O3     O3        0.232028708509138    0.190508604930258    0.998509087133070  0.0000
  O1     O1        0.271601147674287    0.726361427910593    0.980123582583935  0.0000
