data_c00257.vasp
_audit_creation_method             Generated by GULP
_audit_author_name                 Salvador R. G. Balestra
_symmetry_space_group_name_H-M     'P 1             '
_symmetry_Int_Tables_number        1

loop_
_symmetry_equiv_pos_site_id
_symmetry_equiv_pos_as_xyz
_cell_length_a                       17.5476
_cell_length_b                        7.8551
_cell_length_c                       10.2009
_cell_angle_alpha                   90.1820
_cell_angle_beta                    90.8184
_cell_angle_gamma                   88.2059

loop_
_atom_site_label
_atom_site_type_symbol
_atom_site_fract_x
_atom_site_fract_y
_atom_site_fract_z
_atom_site_charge
  Ge     Ge        0.052090000000021    0.000000000000000    0.372269999999958  0.0000
  Ge     Ge        0.941066787469539    0.948956344470341    0.615009717434670  0.0000
  Ge     Ge        0.550648909638505    0.000998523611857    0.121279040087533  0.0000
  Ge     Ge        0.947851814256037    0.941875953585526    0.116085249681994  0.0000
  Ge     Ge        0.443318535445260    0.944457128552642    0.863511516802342  0.0000
  Ge     Ge        0.050624401224217    0.003716973358619    0.864535593166483  0.0000
  Ge     Ge        0.150940921486551    0.312014336440132    0.305320511614754  0.0000
  Ge     Ge        0.357231441272970    0.631620472489923    0.298107867269343  0.0000
  Ge     Ge        0.820510534950891    0.237606131044001    0.727919031071331  0.0000
  Ge     Ge        0.665225045509034    0.714117712961742    0.733564547910825  0.0000
  Ge     Ge        0.847692903303648    0.637449044802268    0.732209714026093  0.0000
  Ge     Ge        0.635969786604091    0.312626138453694    0.732295868253573  0.0000
  Ge     Ge        0.175026551484891    0.712292982327835    0.300476527453059  0.0000
  Ge     Ge        0.332868061894984    0.229182062480343    0.295416151603383  0.0000
  Ge     Ge        0.642891581588756    0.316211054187223    0.046609320065795  0.0000
  Ge     Ge        0.845819128658461    0.633167725889808    0.053067259722945  0.0000
  Ge     Ge        0.323855328108340    0.229067105662832    0.977506990616922  0.0000
  Ge     Ge        0.172453046329026    0.716977656281900    0.982544775192016  0.0000
  Ge     Ge        0.354436186119919    0.629593786848688    0.980832243342350  0.0000
  Ge     Ge        0.142183773885479    0.316852701943862    0.986917638413899  0.0000
  Ge     Ge        0.824932724621070    0.233963906140606    0.043655116244833  0.0000
  Si     Si        0.450196396493701    0.941343551697297    0.373156468726687  0.0000
  Si     Si        0.547629124880922    0.001680157190733    0.620268562339757  0.0000
  Si     Si        0.668314856471052    0.709920766169061    0.045706132373932  0.0000
  O1     O1        0.088183571112099    0.198643247515857    0.395531792108715  0.0000
  O3     O3        0.419590955229404    0.752935093762854    0.390598874668019  0.0000
  O1     O1        0.864115867857429    0.085402936791890    0.632515553404314  0.0000
  O3     O3        0.619877980267546    0.877563338933017    0.649315123822988  0.0000
  O1     O1        0.914933016441839    0.745477903712106    0.649050702135833  0.0000
  O3     O3        0.571097988125786    0.195313972469661    0.642795800730358  0.0000
  O1     O1        0.125287691823300    0.852315765944347    0.397929866245607  0.0000
  O3     O3        0.382460065049592    0.081478650458293    0.391667462204915  0.0000
  O1     O1        0.971293096990120    0.960027015554047    0.455049393380971  0.0000
  O2     O2        0.521971291153440    0.978260723299539    0.467907249615625  0.0000
  O1     O1        0.026067982269429    0.983750315404083    0.207800724175959  0.0000
  O3     O3        0.477613597240588    0.957443606805012    0.223318659419701  0.0000
  O1     O1        0.020587434469061    0.004296929804413    0.703616626777585  0.0000
  O3     O3        0.475503943060200    0.951468438217833    0.704461269694709  0.0000
  O1     O1        0.587088357811638    0.199491286195403    0.146830127814204  0.0000
  O1     O1        0.908912216687297    0.746430256823916    0.143937345753928  0.0000
  O1     O1        0.364317540483304    0.076683812192745    0.879104162605275  0.0000
  O1     O1        0.128744601620985    0.868912780594409    0.886106218762952  0.0000
  O1     O1        0.419648922396828    0.737846909063308    0.893680393289451  0.0000
  O1     O1        0.073593702463357    0.209305857359276    0.903855552708665  0.0000
  O3     O3        0.622889269085717    0.845351831551417    0.134030502538155  0.0000
  O1     O1        0.875153439358318    0.091163560334147    0.138089982395074  0.0000
  O1     O1        0.515500037439073    0.008725065300166    0.963703357829014  0.0000
  O1     O1        0.975236576410898    0.938652210972155    0.954154512602058  0.0000
  O1     O1        0.163821877297669    0.511632212091437    0.365493522126570  0.0000
  O1     O1        0.348558599385355    0.430484773483223    0.358030188214569  0.0000
  O1     O1        0.837335508594971    0.437389157554669    0.667879590723897  0.0000
  O1     O1        0.643717018063250    0.516306512052123    0.672819829787970  0.0000
  O1     O1        0.236694728532759    0.197809121171808    0.300485322892966  0.0000
  O1     O1        0.271154540615756    0.743417682359866    0.297110376050646  0.0000
  O1     O1        0.724000429649452    0.211348374683773    0.729736738314617  0.0000
  O1     O1        0.760696785625900    0.745826461241666    0.723277916346635  0.0000
  O1     O1        0.116335399874526    0.337451727027355    0.147876601634815  0.0000
  O1     O1        0.387468670570701    0.609202679056856    0.139813957743648  0.0000
  O1     O1        0.857303443757383    0.220123999190301    0.884779524740128  0.0000
  O3     O3        0.637053668772895    0.719505690156207    0.896081452130671  0.0000
  O1     O1        0.875003115221821    0.615563065549971    0.893135377879268  0.0000
  O1     O1        0.604931851020983    0.326772901234146    0.890526788617050  0.0000
  O1     O1        0.140772718686122    0.728639003755875    0.141473441295569  0.0000
  O1     O1        0.360989014561737    0.215045337701546    0.134861083855659  0.0000
  O3     O3        0.656081490104363    0.520719954000120    0.102760426838363  0.0000
  O1     O1        0.838755529576850    0.432664699062226    0.111881683371301  0.0000
  O1     O1        0.340747598910654    0.430049867557665    0.918515602887393  0.0000
  O1     O1        0.153417223199124    0.516100796178336    0.923373830814649  0.0000
  O1     O1        0.728877585861755    0.205667606342630    0.037274694217278  0.0000
  O3     O3        0.757975577305515    0.743418038795108    0.047559363857667  0.0000
  O1     O1        0.227522495272759    0.202462207078889    0.982357977666611  0.0000
  O1     O1        0.269046784205633    0.743428218619976    0.982636714876375  0.0000
