data_c00206.vasp
_audit_creation_method             Generated by GULP
_audit_author_name                 Salvador R. G. Balestra
_symmetry_space_group_name_H-M     'P 1             '
_symmetry_Int_Tables_number        1

loop_
_symmetry_equiv_pos_site_id
_symmetry_equiv_pos_as_xyz
_cell_length_a                       17.5337
_cell_length_b                        7.8638
_cell_length_c                       10.1810
_cell_angle_alpha                   90.1975
_cell_angle_beta                    90.5486
_cell_angle_gamma                   87.8251

loop_
_atom_site_label
_atom_site_type_symbol
_atom_site_fract_x
_atom_site_fract_y
_atom_site_fract_z
_atom_site_charge
  Ge     Ge        0.052090000000021    0.000000000000000    0.372269999999958  0.0000
  Ge     Ge        0.446307408433467    0.946433162128549    0.412277270818811  0.0000
  Ge     Ge        0.941062748095927    0.945806224893232    0.614031039997894  0.0000
  Ge     Ge        0.555902627396670    0.997144750641879    0.166044721915295  0.0000
  Ge     Ge        0.952927971445383    0.931581977128477    0.112528775434981  0.0000
  Ge     Ge        0.452189626493037    0.929642307495184    0.908159951020499  0.0000
  Ge     Ge        0.054958295056622    0.995042729659578    0.858145174324154  0.0000
  Ge     Ge        0.150208109900458    0.310903066852352    0.301349377373940  0.0000
  Ge     Ge        0.357134621155424    0.627348174253437    0.294883506352954  0.0000
  Ge     Ge        0.666251675334812    0.703814739534419    0.729637410217417  0.0000
  Ge     Ge        0.850938243351739    0.628403462043857    0.729857994860664  0.0000
  Ge     Ge        0.645097658300881    0.306115092897156    0.727780172867298  0.0000
  Ge     Ge        0.173661508082064    0.709278578119068    0.298344510912352  0.0000
  Ge     Ge        0.645710277168456    0.308030125430326    0.046287744485658  0.0000
  Ge     Ge        0.856484381753389    0.620611689233048    0.045890394502955  0.0000
  Ge     Ge        0.327626770747351    0.219396212451092    0.984115281512853  0.0000
  Ge     Ge        0.175130471878382    0.707333748321770    0.980385789493837  0.0000
  Ge     Ge        0.357255630904090    0.619518181637187    0.979142116289153  0.0000
  Ge     Ge        0.146341803171782    0.305395885872059    0.982370045602632  0.0000
  Ge     Ge        0.674530583091126    0.707935522849445    0.047529357805903  0.0000
  Ge     Ge        0.826737606091480    0.221426851028644    0.041732236899350  0.0000
  Si     Si        0.550541063968913    0.995743437411579    0.659013484137122  0.0000
  Si     Si        0.825439623394506    0.234964086633270    0.730709317490827  0.0000
  Si     Si        0.329495860317391    0.232989309763215    0.295128707781060  0.0000
  O1     O1        0.089804551668382    0.196302066453738    0.394688534478189  0.0000
  O1     O1        0.418485957640116    0.741740252298682    0.389705124925220  0.0000
  O3     O3        0.866858880053823    0.091017199447732    0.642851597482214  0.0000
  O3     O3        0.616571548246844    0.851885119462837    0.633240935238089  0.0000
  O1     O1        0.911536035270768    0.742662905860220    0.636115617032065  0.0000
  O3     O3        0.584956093893231    0.179913702602753    0.637388169772164  0.0000
  O1     O1        0.124931845886192    0.850541661746524    0.397348406587098  0.0000
  O3     O3        0.371158630745025    0.090300641404284    0.384554937792655  0.0000
  O1     O1        0.969632705853473    0.966245124338843    0.453131788523693  0.0000
  O3     O3        0.474642175778333    0.967470903386061    0.575824805604900  0.0000
  O1     O1        0.028559238120169    0.981889330138660    0.206695969127549  0.0000
  O1     O1        0.525758472103568    0.990552940190227    0.325425763092327  0.0000
  O1     O1        0.023620165895525    0.987920793885385    0.697802346861010  0.0000
  O3     O3        0.527901897029358    0.979304108966204    0.812540798201776  0.0000
  O1     O1        0.579512157751857    0.202694043650711    0.132616958305853  0.0000
  O1     O1        0.919893538432857    0.730894248653827    0.138970476682020  0.0000
  O1     O1        0.376744630859883    0.074701655885832    0.890785258155882  0.0000
  O1     O1        0.132236798569230    0.857156417861324    0.880822758552281  0.0000
  O1     O1        0.418765729350010    0.729115727189924    0.883637789197123  0.0000
  O1     O1        0.079710677606059    0.199811998974301    0.893885901138657  0.0000
  O1     O1        0.633899557966778    0.861184965446024    0.145538804446575  0.0000
  O1     O1        0.877000318375691    0.075623811422903    0.132365105056403  0.0000
  O1     O1        0.481583563579627    0.935463313491451    0.069637588185522  0.0000
  O1     O1        0.979346579459387    0.936406602254988    0.949990337910477  0.0000
  O1     O1        0.157827013810601    0.510450570064195    0.362190187074189  0.0000
  O3     O3        0.345469637679513    0.421187361520553    0.350652210555988  0.0000
  O3     O3        0.840397732330745    0.421444790046409    0.672916479099110  0.0000
  O1     O1        0.648498671124382    0.505709845642737    0.664341014783374  0.0000
  O3     O3        0.239244729979162    0.205565585852930    0.293905529557889  0.0000
  O1     O1        0.270067119129094    0.735600883853459    0.297439626498160  0.0000
  O3     O3        0.735209377272531    0.207042783734833    0.732639939227200  0.0000
  O1     O1        0.762584714806709    0.731315103986534    0.726318924315343  0.0000
  O1     O1        0.116878157686423    0.324064274229394    0.142304483353849  0.0000
  O1     O1        0.391420255412000    0.613029957603903    0.138738985448354  0.0000
  O3     O3        0.857352289537703    0.220279298897781    0.879260443655740  0.0000
  O1     O1        0.636981924946711    0.717333555199176    0.890334936114898  0.0000
  O1     O1        0.887407564833788    0.614217512266781    0.885385111402271  0.0000
  O1     O1        0.614490737318663    0.327318009909160    0.886243571546602  0.0000
  O1     O1        0.140694600079458    0.723147363215353    0.138151470369694  0.0000
  O3     O3        0.360063273498754    0.215172873887286    0.146608380623796  0.0000
  O1     O1        0.658969236194632    0.507258947109505    0.108417323825429  0.0000
  O1     O1        0.844527479338925    0.421375849396691    0.104123590836263  0.0000
  O1     O1        0.344323147575665    0.419207169764086    0.922450644075580  0.0000
  O1     O1        0.158510271716224    0.505315068707326    0.921861948165924  0.0000
  O1     O1        0.731083393639407    0.191003866126105    0.048203909169864  0.0000
  O1     O1        0.770570156341630    0.734718202384704    0.040145900496967  0.0000
  O1     O1        0.231875640863059    0.188926409602306    0.978315091977319  0.0000
  O1     O1        0.271453761477654    0.733763251495891    0.985008116767049  0.0000
