data_c00246.vasp
_audit_creation_method             Generated by GULP
_audit_author_name                 Salvador R. G. Balestra
_symmetry_space_group_name_H-M     'P 1             '
_symmetry_Int_Tables_number        1

loop_
_symmetry_equiv_pos_site_id
_symmetry_equiv_pos_as_xyz
_cell_length_a                       17.5952
_cell_length_b                        7.8387
_cell_length_c                       10.1827
_cell_angle_alpha                   89.2121
_cell_angle_beta                    89.8447
_cell_angle_gamma                   88.6458

loop_
_atom_site_label
_atom_site_type_symbol
_atom_site_fract_x
_atom_site_fract_y
_atom_site_fract_z
_atom_site_charge
  Ge     Ge        0.052090000000021    0.000000000000000    0.372269999999958  0.0000
  Ge     Ge        0.453328794571599    0.949047067762477    0.377033349788169  0.0000
  Ge     Ge        0.943272165656268    0.961338549230569    0.620455062262736  0.0000
  Ge     Ge        0.951409488462419    0.945759409061204    0.113455369050611  0.0000
  Ge     Ge        0.451769009758266    0.952670620194476    0.866199087531811  0.0000
  Ge     Ge        0.057024379794712    0.009584349169813    0.860203461800549  0.0000
  Ge     Ge        0.149428213161191    0.316121644173264    0.301886987840550  0.0000
  Ge     Ge        0.357286648101284    0.635008630639222    0.300938781574083  0.0000
  Ge     Ge        0.827866670321762    0.258687393415191    0.729373280174261  0.0000
  Ge     Ge        0.671140331518200    0.725424802939995    0.731723807366710  0.0000
  Ge     Ge        0.644311818898797    0.326215503830888    0.729703639177661  0.0000
  Ge     Ge        0.176819269612811    0.718989984473603    0.297925298142354  0.0000
  Ge     Ge        0.329696404776294    0.232362038505360    0.299336386972525  0.0000
  Ge     Ge        0.646042083280911    0.314549614873883    0.047304619969660  0.0000
  Ge     Ge        0.846521823356342    0.639793027588226    0.056048406874756  0.0000
  Ge     Ge        0.329618754724127    0.234857256021526    0.980016528702897  0.0000
  Ge     Ge        0.178283468053198    0.723489853473484    0.979033752352669  0.0000
  Ge     Ge        0.359162665101430    0.637651834149399    0.982197984788629  0.0000
  Ge     Ge        0.148791036086444    0.320211346453355    0.982220945941768  0.0000
  Ge     Ge        0.667095120880108    0.718025378964987    0.051971858455121  0.0000
  Ge     Ge        0.827493427513084    0.236731819265919    0.044574388402884  0.0000
  Si     Si        0.557502890956562    0.014337997863461    0.618942680746161  0.0000
  Si     Si        0.550139978321912    0.008210612548716    0.120534420136884  0.0000
  Si     Si        0.848712885246487    0.652246340285851    0.740412596177927  0.0000
  O1     O1        0.085026142113567    0.202520654515721    0.392645136926718  0.0000
  O1     O1        0.420998664594813    0.745964170809920    0.393103908076490  0.0000
  O1     O1        0.874660277671560    0.118589714364924    0.628780308665110  0.0000
  O3     O3        0.630672415931127    0.892688827292858    0.644313660267140  0.0000
  O3     O3        0.911799550191385    0.762476872020770    0.667584768210248  0.0000
  O3     O3        0.579279035273627    0.208734004463971    0.643844582792948  0.0000
  O1     O1        0.126536874764366    0.856468237855086    0.395606534487455  0.0000
  O1     O1        0.379056157004920    0.091256958393658    0.398600146961350  0.0000
  O1     O1        0.972371968920887    0.952791239238819    0.458600914736101  0.0000
  O3     O3        0.531687131375784    0.992455559739860    0.469149635007287  0.0000
  O1     O1        0.027627762740980    0.984596353415230    0.207670239958426  0.0000
  O3     O3        0.479083258524253    0.975450371920080    0.212277274291386  0.0000
  O1     O1        0.025766234454639    0.008328378448157    0.700442324966543  0.0000
  O3     O3        0.485654548860784    0.959702786380676    0.706685085248059  0.0000
  O3     O3        0.585712118113371    0.192971184417147    0.142689949711984  0.0000
  O1     O1        0.914140682932144    0.745816270179748    0.138818435269688  0.0000
  O1     O1        0.374812080039992    0.088380463886554    0.882276183571947  0.0000
  O1     O1        0.134093292056631    0.873600122264617    0.881008646032403  0.0000
  O1     O1        0.425874695725995    0.746053803972800    0.894076908678400  0.0000
  O1     O1        0.081814453866117    0.214732502696013    0.896068827593997  0.0000
  O3     O3        0.614364579356806    0.860385965050237    0.143889513102650  0.0000
  O1     O1        0.878226780407073    0.092764104723642    0.137206485680162  0.0000
  O3     O3        0.524719045514065    0.008729963984034    0.968139206966763  0.0000
  O1     O1        0.980466879957956    0.948510058243019    0.951916653081402  0.0000
  O1     O1        0.163163917903630    0.515275949778464    0.360347240259748  0.0000
  O1     O1        0.343269764495242    0.434391393111831    0.360501076454385  0.0000
  O3     O3        0.841300768260098    0.467735087911378    0.675205439996555  0.0000
  O1     O1        0.650626529084952    0.530616081808000    0.666746373298552  0.0000
  O1     O1        0.233897868541482    0.198515679108598    0.300738778249895  0.0000
  O1     O1        0.272769531072994    0.752381300969571    0.298463957380548  0.0000
  O1     O1        0.731980761967888    0.226164123198557    0.726270660595953  0.0000
  O3     O3        0.768278337909591    0.754953862464107    0.731859218206567  0.0000
  O1     O1        0.118939645981540    0.338480191011858    0.142146121006749  0.0000
  O1     O1        0.389272432997060    0.617396991059326    0.142082140656626  0.0000
  O1     O1        0.861670938909148    0.224986808444079    0.885547488775055  0.0000
  O1     O1        0.638903031547909    0.730845678163765    0.890456210581567  0.0000
  O3     O3        0.870423355392903    0.618000945406300    0.891176459125908  0.0000
  O1     O1        0.613967035539945    0.343622948325111    0.889027454200047  0.0000
  O1     O1        0.145156884434795    0.735841637427393    0.137908039313050  0.0000
  O1     O1        0.361148789061210    0.219350849090138    0.139377379323280  0.0000
  O1     O1        0.654685588444857    0.513005605481902    0.111909673130847  0.0000
  O1     O1        0.837777268538798    0.435928733215159    0.112350772389948  0.0000
  O1     O1        0.346522582147999    0.438207514058961    0.921061764990984  0.0000
  O1     O1        0.161854444740921    0.521996284725811    0.920572889075561  0.0000
  O1     O1        0.731627983174491    0.203859931630442    0.039343735622764  0.0000
  O1     O1        0.762280559259871    0.755934148413490    0.063447494197820  0.0000
  O1     O1        0.233421628113934    0.204900418002734    0.978499136562526  0.0000
  O1     O1        0.274584428201595    0.752873669517345    0.979823490036620  0.0000
