data_c00230.vasp
_audit_creation_method             Generated by GULP
_audit_author_name                 Salvador R. G. Balestra
_symmetry_space_group_name_H-M     'P 1             '
_symmetry_Int_Tables_number        1

loop_
_symmetry_equiv_pos_site_id
_symmetry_equiv_pos_as_xyz
_cell_length_a                       17.5579
_cell_length_b                        7.8369
_cell_length_c                       10.3068
_cell_angle_alpha                   90.0665
_cell_angle_beta                    90.7948
_cell_angle_gamma                   91.4257

loop_
_atom_site_label
_atom_site_type_symbol
_atom_site_fract_x
_atom_site_fract_y
_atom_site_fract_z
_atom_site_charge
  Ge     Ge        0.052090000000021    0.000000000000000    0.372269999999958  0.0000
  Ge     Ge        0.454754995595016    0.049983194791554    0.421513509359972  0.0000
  Ge     Ge        0.946589922545225    0.053369323305139    0.622224895281649  0.0000
  Ge     Ge        0.564619139919512    0.009378200782544    0.177652779442963  0.0000
  Ge     Ge        0.455341880089068    0.064409224175510    0.924625576848338  0.0000
  Ge     Ge        0.056067890485416    0.000187276017972    0.872813152444292  0.0000
  Ge     Ge        0.178462357872622    0.281837961458152    0.303997183904199  0.0000
  Ge     Ge        0.330902461987898    0.766719289877347    0.309822062107560  0.0000
  Ge     Ge        0.852118132767489    0.364457512749636    0.743085764111658  0.0000
  Ge     Ge        0.646829233690444    0.691671560834610    0.747714828855345  0.0000
  Ge     Ge        0.827594913620572    0.766197703019157    0.734540948438466  0.0000
  Ge     Ge        0.669983230311696    0.285911435270058    0.753146450353031  0.0000
  Ge     Ge        0.149626851294596    0.682747900826330    0.307605455857949  0.0000
  Ge     Ge        0.360034775800856    0.364422489202849    0.305459200128904  0.0000
  Ge     Ge        0.677937481713175    0.307233639384122    0.066290473730182  0.0000
  Ge     Ge        0.837475517293859    0.777908860765236    0.047817645992497  0.0000
  Ge     Ge        0.357695019486345    0.377071601739373    0.989357370208818  0.0000
  Ge     Ge        0.149590200762581    0.688941031921570    0.992236854319340  0.0000
  Ge     Ge        0.330042969875466    0.778457105713315    0.995063290137345  0.0000
  Ge     Ge        0.177900147079231    0.286090001714388    0.988416100652209  0.0000
  Ge     Ge        0.860204885020774    0.378645624331068    0.058805131564656  0.0000
  Si     Si        0.553115236897190    0.001375524866544    0.675470612727237  0.0000
  Si     Si        0.955410970197025    0.067945007904997    0.117961817568836  0.0000
  Si     Si        0.658324732694183    0.704912517737373    0.054467715169364  0.0000
  O1     O1        0.128348926323804    0.138629768914758    0.396356585209796  0.0000
  O1     O1        0.377386704219901    0.914967492795615    0.405288699705738  0.0000
  O1     O1        0.917499745572739    0.255250730418989    0.656888085158842  0.0000
  O3     O3        0.581452270289211    0.808836063024170    0.659918861197568  0.0000
  O1     O1        0.871830880405998    0.911010206939670    0.636180556451745  0.0000
  O3     O3        0.622150754447745    0.138196496439595    0.655633188052202  0.0000
  O1     O1        0.083850243693242    0.796303757783183    0.391844230791071  0.0000
  O1     O1        0.428643956043036    0.254783826360034    0.387930285935277  0.0000
  O1     O1        0.975990073817357    0.046439215223903    0.463641235489885  0.0000
  O3     O3        0.482190786153612    0.039963700112320    0.584397228228682  0.0000
  O3     O3        0.025405582564951    0.022083392013375    0.208916701269516  0.0000
  O1     O1        0.531752754801811    0.991625885812711    0.333255946865884  0.0000
  O1     O1        0.024293374402070    0.000572339240622    0.714927030221058  0.0000
  O3     O3        0.529790762284212    0.022402408644448    0.825919135293782  0.0000
  O1     O1        0.631975316841823    0.171845764206565    0.170098582657243  0.0000
  O3     O3        0.884744340181823    0.934015263948333    0.136703098807316  0.0000
  O1     O1        0.422690774639281    0.267275078067233    0.901902142548727  0.0000
  O1     O1        0.081895322612572    0.795221388552814    0.906155471828187  0.0000
  O1     O1        0.379940644745084    0.921963972780834    0.903574920453289  0.0000
  O1     O1        0.132207545342698    0.139554898175639    0.890247614816943  0.0000
  O3     O3        0.601674133838418    0.813414587690987    0.138892757570019  0.0000
  O3     O3        0.925626538826139    0.257824228572415    0.143581460662827  0.0000
  O1     O1        0.486796207354881    0.051840718371672    0.083182864275215  0.0000
  O3     O3        0.981066402997304    0.060879236737406    0.968173986721251  0.0000
  O1     O1        0.162862368200340    0.482859128583554    0.366972453128045  0.0000
  O1     O1        0.346907267178682    0.564317035587961    0.368141347528723  0.0000
  O1     O1        0.838694362005216    0.562129188813602    0.676924737485721  0.0000
  O1     O1        0.652263039059035    0.487540854635204    0.692536681119256  0.0000
  O1     O1        0.274769285348031    0.249556099379739    0.308743177256903  0.0000
  O1     O1        0.234605420318087    0.798211777713706    0.309258265149498  0.0000
  O1     O1        0.766089162944934    0.253327544209734    0.747673119902714  0.0000
  O1     O1        0.731956394271791    0.801880328274456    0.737901146424599  0.0000
  O1     O1        0.146726773891330    0.269458336641314    0.145251537874890  0.0000
  O1     O1        0.362760092312978    0.787567037189685    0.153331192884921  0.0000
  O1     O1        0.884766952569715    0.397180584590514    0.898735670181670  0.0000
  O3     O3        0.623414485600267    0.678365323249769    0.910507061803947  0.0000
  O1     O1        0.865701399617699    0.786374488412959    0.889001922115845  0.0000
  O1     O1        0.641466952335837    0.274823461836451    0.912335287825858  0.0000
  O1     O1        0.119896098113390    0.662776989254195    0.148719544692422  0.0000
  O1     O1        0.388071155163114    0.393732123082271    0.148523895946856  0.0000
  O3     O3        0.669111326428387    0.518500104153468    0.115451409492850  0.0000
  O1     O1        0.856958071100525    0.582918883794572    0.116703755231113  0.0000
  O1     O1        0.343857791011709    0.576998215347792    0.931389592721563  0.0000
  O1     O1        0.162908211174126    0.489439226375385    0.930084942149827  0.0000
  O1     O1        0.773675571572867    0.272298003393969    0.065843858945823  0.0000
  O3     O3        0.739775346740179    0.804658295744618    0.047227645376377  0.0000
  O1     O1        0.274198182869694    0.256229377334094    0.989432315759823  0.0000
  O1     O1        0.233608534501694    0.808727357334294    0.992244276652485  0.0000
