data_c00249.vasp
_audit_creation_method             Generated by GULP
_audit_author_name                 Salvador R. G. Balestra
_symmetry_space_group_name_H-M     'P 1             '
_symmetry_Int_Tables_number        1

loop_
_symmetry_equiv_pos_site_id
_symmetry_equiv_pos_as_xyz
_cell_length_a                       17.4997
_cell_length_b                        7.8491
_cell_length_c                       10.2876
_cell_angle_alpha                   89.8856
_cell_angle_beta                    90.3507
_cell_angle_gamma                   91.7334

loop_
_atom_site_label
_atom_site_type_symbol
_atom_site_fract_x
_atom_site_fract_y
_atom_site_fract_z
_atom_site_charge
  Ge     Ge        0.052090000000021    0.000000000000000    0.372269999999958  0.0000
  Ge     Ge        0.456815629783613    0.056558670351143    0.384563174914750  0.0000
  Ge     Ge        0.947797302164240    0.057070565610802    0.624346084812139  0.0000
  Ge     Ge        0.454533135442976    0.059672528705926    0.880563189384447  0.0000
  Ge     Ge        0.057056700111306    0.996336628413529    0.873206767814168  0.0000
  Ge     Ge        0.178245950389877    0.284658118812674    0.304260776065704  0.0000
  Ge     Ge        0.331931934616698    0.772791916762865    0.305770555004456  0.0000
  Ge     Ge        0.855933898313052    0.370124503477140    0.740578359077124  0.0000
  Ge     Ge        0.644670076942297    0.689605462624329    0.747985177543731  0.0000
  Ge     Ge        0.827908354245314    0.768521434793614    0.739024229284442  0.0000
  Ge     Ge        0.672756943716511    0.290174400705052    0.743284264816091  0.0000
  Ge     Ge        0.150568952683416    0.685200130010809    0.305674891226837  0.0000
  Ge     Ge        0.359673708179843    0.371158712131791    0.309328423892482  0.0000
  Ge     Ge        0.672348066349938    0.291725703393659    0.058647690297897  0.0000
  Ge     Ge        0.836358543080894    0.766031966213474    0.052860021412993  0.0000
  Ge     Ge        0.361367639755808    0.371687769529061    0.992962865731328  0.0000
  Ge     Ge        0.149937989421147    0.683935158626943    0.989321665253222  0.0000
  Ge     Ge        0.331734088486737    0.773491665014019    0.989622162065404  0.0000
  Ge     Ge        0.179533495556831    0.283115193108226    0.987752816201441  0.0000
  Ge     Ge        0.652556272250047    0.693050313609495    0.062340579138812  0.0000
  Ge     Ge        0.855899907098023    0.364780634099715    0.057181572595542  0.0000
  Si     Si        0.557386036562177    0.001832017659228    0.634770415128862  0.0000
  Si     Si        0.556163506075555    0.998225444923934    0.131564667921452  0.0000
  Si     Si        0.954725318116953    0.058836349440497    0.118600776179237  0.0000
  O1     O1        0.127278436336487    0.142304719229311    0.397791924388453  0.0000
  O1     O1        0.381148667787160    0.914937318561614    0.402901112447070  0.0000
  O1     O1        0.922807090292169    0.262422416756475    0.655815910945874  0.0000
  O3     O3        0.577898943797456    0.807991622760089    0.666368485044862  0.0000
  O1     O1        0.869824852870725    0.923613844063356    0.645470880855974  0.0000
  O3     O3        0.630162325853699    0.127735359238686    0.654395218450290  0.0000
  O1     O1        0.084657432125218    0.797499535025652    0.390772340635324  0.0000
  O1     O1        0.424990242672809    0.259458454124591    0.398403230595054  0.0000
  O1     O1        0.975130993925826    0.041344754114075    0.464544765988759  0.0000
  O3     O3        0.532076923377296    0.014026532761559    0.484937983286207  0.0000
  O3     O3        0.026458656456252    0.024435280639693    0.208848107870176  0.0000
  O3     O3        0.486168362607142    0.030178115926430    0.224316739737476  0.0000
  O1     O1        0.025561557081310    0.000683048504481    0.715194095101621  0.0000
  O3     O3        0.486695270908608    0.058694961250306    0.721952881838621  0.0000
  O3     O3        0.622050655457068    0.144483829974249    0.151306219984186  0.0000
  O3     O3        0.888316118266383    0.914875599694761    0.142080871361008  0.0000
  O1     O1        0.429420595064299    0.265239810644831    0.909827834422982  0.0000
  O1     O1        0.081948566554720    0.790672035252976    0.904655903748768  0.0000
  O1     O1        0.376791721553048    0.923383983948301    0.894162185548012  0.0000
  O1     O1        0.134502713508306    0.133038640135845    0.892125405757834  0.0000
  O3     O3        0.592396808251876    0.814229941406514    0.154894450144783  0.0000
  O3     O3        0.919816608884769    0.243636393245620    0.143684667478731  0.0000
  O3     O3        0.527763647148771    0.998995930310495    0.981745382470978  0.0000
  O3     O3        0.981280497774569    0.056390154313966    0.968505333585076  0.0000
  O1     O1        0.163932305605210    0.486188056482749    0.366306323026049  0.0000
  O1     O1        0.346130393116313    0.570717194912141    0.367580818830532  0.0000
  O1     O1        0.844096847282437    0.569330471756379    0.676442002623082  0.0000
  O1     O1        0.653196606413199    0.489697146256703    0.682602351067236  0.0000
  O1     O1        0.274729581305997    0.252872698121190    0.308418356684779  0.0000
  O1     O1        0.235397886439326    0.803941668359261    0.306231303313204  0.0000
  O1     O1        0.769099782739444    0.260498301959443    0.739701288683061  0.0000
  O1     O1        0.731505868933863    0.797004682293283    0.745322234064115  0.0000
  O1     O1        0.147761476653780    0.270421908570078    0.145116636329490  0.0000
  O1     O1        0.363353519835290    0.788577430599316    0.147808486015084  0.0000
  O1     O1        0.884882842523017    0.392202518706981    0.899324446415917  0.0000
  O1     O1        0.617901437672436    0.665176795295499    0.906865826180446  0.0000
  O1     O1        0.865608901785867    0.778199696463265    0.893858634968890  0.0000
  O1     O1        0.640299543889686    0.281119791257376    0.900424543590036  0.0000
  O1     O1        0.120660414326834    0.661428902776168    0.147330125975302  0.0000
  O1     O1        0.390556859580584    0.391832952990419    0.151885607516949  0.0000
  O1     O1        0.660643183939083    0.491799570196523    0.124010331971822  0.0000
  O1     O1        0.849862212671584    0.566251092641206    0.118723573352986  0.0000
  O1     O1        0.348921443254819    0.571923581408861    0.931678662305294  0.0000
  O1     O1        0.162648515918369    0.484336291961084    0.927622132691258  0.0000
  O1     O1        0.768654623424752    0.257530172381378    0.058591504901768  0.0000
  O1     O1        0.739983273763550    0.799181398214355    0.056295706088224  0.0000
  O1     O1        0.276453788455225    0.255121978330609    0.987698176768409  0.0000
  O1     O1        0.234850114664875    0.800854899985882    0.986540326107508  0.0000
