data_c00204.vasp
_audit_creation_method             Generated by GULP
_audit_author_name                 Salvador R. G. Balestra
_symmetry_space_group_name_H-M     'P 1             '
_symmetry_Int_Tables_number        1

loop_
_symmetry_equiv_pos_site_id
_symmetry_equiv_pos_as_xyz
_cell_length_a                       17.8120
_cell_length_b                        7.8315
_cell_length_c                       10.3197
_cell_angle_alpha                   89.6469
_cell_angle_beta                    90.9063
_cell_angle_gamma                   89.8112

loop_
_atom_site_label
_atom_site_type_symbol
_atom_site_fract_x
_atom_site_fract_y
_atom_site_fract_z
_atom_site_charge
  Ge     Ge        0.052090000000021    0.000000000000000    0.372269999999958  0.0000
  Ge     Ge        0.449921076341095    0.968616042598575    0.385986989243835  0.0000
  Ge     Ge        0.939162549356847    0.008202484422759    0.611404495581210  0.0000
  Ge     Ge        0.548486565109708    0.980159384860947    0.124265823044934  0.0000
  Ge     Ge        0.951440238028360    0.990304012093742    0.111728601124779  0.0000
  Ge     Ge        0.444519243466207    0.972578844011373    0.866126961117605  0.0000
  Ge     Ge        0.053191804634100    0.003894136808856    0.860009388226600  0.0000
  Ge     Ge        0.150451163836644    0.314575029878197    0.297859576404302  0.0000
  Ge     Ge        0.352169171552991    0.656334862895366    0.298757582894899  0.0000
  Ge     Ge        0.838087791100504    0.316371538283891    0.718429135466095  0.0000
  Ge     Ge        0.824076453889278    0.718995419528373    0.733479467160267  0.0000
  Ge     Ge        0.173148570959793    0.722114656578221    0.296377272437238  0.0000
  Ge     Ge        0.329132924917098    0.245700576034097    0.298160309704609  0.0000
  Ge     Ge        0.670224136034985    0.256986355335518    0.046432769568216  0.0000
  Ge     Ge        0.827534420807279    0.714254194672939    0.047379971531627  0.0000
  Ge     Ge        0.325636178036657    0.246869652479142    0.983548662006558  0.0000
  Ge     Ge        0.173026588887371    0.725086038598471    0.981417210929557  0.0000
  Ge     Ge        0.352661861838276    0.656879186607533    0.984342239959288  0.0000
  Ge     Ge        0.146229122548156    0.318004842795978    0.982806197503398  0.0000
  Ge     Ge        0.648772215589447    0.666159713856035    0.050623351490845  0.0000
  Ge     Ge        0.848054680939178    0.304636869349356    0.036570241180023  0.0000
  Si     Si        0.553815038360074    0.986969879017127    0.631096123662870  0.0000
  Si     Si        0.645089419017632    0.675434667944131    0.745860479081634  0.0000
  Si     Si        0.659738040572991    0.280819841374193    0.737471007921868  0.0000
  O1     O1        0.089035018855973    0.200622516927005    0.391277532474875  0.0000
  O1     O1        0.413919990363781    0.767003328219287    0.396245781576650  0.0000
  O1     O1        0.898106601646399    0.205582534177178    0.623112229785289  0.0000
  O2     O2        0.592959044208139    0.803289954575333    0.659969283876007  0.0000
  O1     O1        0.867236134243870    0.869683877932486    0.642412248421942  0.0000
  O2     O2        0.608728267654474    0.147602584465206    0.656335315397551  0.0000
  O1     O1        0.122578717435187    0.851817133557160    0.395956622936678  0.0000
  O1     O1        0.378607006776129    0.114890818665019    0.402382640726963  0.0000
  O1     O1        0.971693605693693    0.974730977805563    0.457495798192086  0.0000
  O3     O3        0.529251704840900    0.994016755811239    0.481561830385280  0.0000
  O1     O1        0.027184690520992    0.971102710378216    0.211145550095395  0.0000
  O1     O1        0.478364267344660    0.008454825936740    0.229553850958198  0.0000
  O1     O1        0.019762216279948    0.987625075206182    0.703432591804593  0.0000
  O3     O3        0.477061008349978    0.998268585025378    0.709699930678957  0.0000
  O1     O1        0.621794699896528    0.122158125595276    0.142288989548379  0.0000
  O1     O1        0.881164673947822    0.844976324242158    0.141610457684801  0.0000
  O1     O1        0.368544219073662    0.105722731302711    0.883668556616801  0.0000
  O1     O1        0.128338563444558    0.868720771009411    0.881603843452027  0.0000
  O1     O1        0.415900715346734    0.766148807059939    0.892966710018474  0.0000
  O1     O1        0.080845762860045    0.209876256588206    0.892460062477678  0.0000
  O1     O1        0.584971208317871    0.776699924785104    0.138487618616996  0.0000
  O1     O1        0.914302605117624    0.193014718216682    0.122530494098666  0.0000
  O1     O1        0.515359118301387    0.025972052487886    0.970529262434808  0.0000
  O1     O1        0.979806321645195    0.949561344206507    0.956193213303531  0.0000
  O1     O1        0.162483646891190    0.516240706164949    0.354518444290058  0.0000
  O1     O1        0.340427954072678    0.452650391032579    0.352161190496970  0.0000
  O1     O1        0.839324657323387    0.523228841109162    0.665785693038848  0.0000
  O2     O2        0.644268705069782    0.479342157715817    0.691987630908459  0.0000
  O1     O1        0.234576995673851    0.204244496570032    0.297825597955373  0.0000
  O1     O1        0.267498251092097    0.765145780301172    0.297911059285340  0.0000
  O3     O3        0.746581446391576    0.238551924146953    0.715189250929493  0.0000
  O3     O3        0.728235060083642    0.750365570557813    0.743204369674504  0.0000
  O1     O1        0.116868940822109    0.326285672127939    0.140621300097105  0.0000
  O1     O1        0.385008185371138    0.654048851540367    0.142687378627997  0.0000
  O1     O1        0.871683424548708    0.304378421397415    0.875021697473498  0.0000
  O3     O3        0.615139082955621    0.674818089847911    0.890692590596726  0.0000
  O1     O1        0.857485390782582    0.724872531822855    0.889262269918960  0.0000
  O3     O3        0.638598016634254    0.262780053067119    0.886140990526842  0.0000
  O1     O1        0.141540178989016    0.736120365156693    0.137842812437592  0.0000
  O1     O1        0.358985144951901    0.229758836012255    0.140574987735457  0.0000
  O1     O1        0.658821386804763    0.461930753491766    0.104017575043466  0.0000
  O1     O1        0.838973574253709    0.505205521115811    0.097070858620788  0.0000
  O1     O1        0.341003124126896    0.453121956174361    0.930005858518579  0.0000
  O1     O1        0.156692661277082    0.521349235762493    0.924612119297612  0.0000
  O1     O1        0.762898513683424    0.202019032908095    0.046662064442144  0.0000
  O1     O1        0.734451676235484    0.766736173986662    0.055925430030137  0.0000
  O1     O1        0.230712167512205    0.210972720111786    0.981609703512668  0.0000
  O1     O1        0.267689506611293    0.762400009357911    0.982040004393284  0.0000
