data_c00262.vasp
_audit_creation_method             Generated by GULP
_audit_author_name                 Salvador R. G. Balestra
_symmetry_space_group_name_H-M     'P 1             '
_symmetry_Int_Tables_number        1

loop_
_symmetry_equiv_pos_site_id
_symmetry_equiv_pos_as_xyz
_cell_length_a                       17.7869
_cell_length_b                        7.8810
_cell_length_c                       10.3087
_cell_angle_alpha                   89.9199
_cell_angle_beta                    90.1164
_cell_angle_gamma                   89.7817

loop_
_atom_site_label
_atom_site_type_symbol
_atom_site_fract_x
_atom_site_fract_y
_atom_site_fract_z
_atom_site_charge
  Ge     Ge        0.052090000000021    0.000000000000000    0.372269999999958  0.0000
  Ge     Ge        0.553409014541168    0.966505843945981    0.605964676612700  0.0000
  Ge     Ge        0.550524811840005    0.967346103934804    0.110577376170266  0.0000
  Ge     Ge        0.946384010980995    0.985346814068026    0.112499927325572  0.0000
  Ge     Ge        0.444799919034537    0.967594049308070    0.856380914998614  0.0000
  Ge     Ge        0.053756677500619    0.996673158239162    0.861519247357422  0.0000
  Ge     Ge        0.153829487872838    0.309222401037709    0.295266720469088  0.0000
  Ge     Ge        0.352440268038362    0.661169284494376    0.287637842496249  0.0000
  Ge     Ge        0.852247614196574    0.299384397762109    0.728494575507121  0.0000
  Ge     Ge        0.654497849855220    0.657740066779950    0.720892924474181  0.0000
  Ge     Ge        0.835271844577393    0.706454677044208    0.728863293129697  0.0000
  Ge     Ge        0.672580650254427    0.249487350772439    0.720778377636096  0.0000
  Ge     Ge        0.171379557555525    0.714987376466508    0.292549502027035  0.0000
  Ge     Ge        0.334725747736428    0.256599182508930    0.289268091444940  0.0000
  Ge     Ge        0.670291308514861    0.247253836328374    0.035872243408988  0.0000
  Ge     Ge        0.831514823787942    0.694270288454288    0.044090708337175  0.0000
  Ge     Ge        0.327058701565840    0.249655205944028    0.974352521882443  0.0000
  Ge     Ge        0.172002721577277    0.716313235155820    0.978832327824553  0.0000
  Ge     Ge        0.352344613940048    0.652487418825942    0.973474166283805  0.0000
  Ge     Ge        0.146906938732143    0.310965446244691    0.979582203420009  0.0000
  Ge     Ge        0.650586783346423    0.651398317975304    0.038327974622684  0.0000
  Si     Si        0.448876792192077    0.971328225984028    0.359829617192415  0.0000
  Si     Si        0.949185137255552    0.992237263583811    0.618353990166778  0.0000
  Si     Si        0.847246163455915    0.296953489830132    0.036910375542261  0.0000
  O1     O1        0.093986369738604    0.193763640277824    0.390534107767961  0.0000
  O3     O3        0.411989556592981    0.787127794117847    0.379348911763477  0.0000
  O3     O3        0.918484098744552    0.180394874669282    0.648236047749390  0.0000
  O1     O1        0.590878725741169    0.768378224092584    0.629313785446648  0.0000
  O3     O3        0.885458300502470    0.852694909411924    0.640497390269760  0.0000
  O1     O1        0.622960976662396    0.113560474156564    0.625290985611084  0.0000
  O1     O1        0.120416965129147    0.846755135582960    0.390570229838034  0.0000
  O3     O3        0.386728650524162    0.116929659707684    0.383645758432980  0.0000
  O3     O3        0.974216560052950    0.978683964258094    0.469119251983078  0.0000
  O3     O3        0.522288937101428    0.988659002734634    0.447125570104533  0.0000
  O1     O1        0.020818558315758    0.979943285667120    0.214604883051803  0.0000
  O3     O3        0.474676325992075    0.994132122162124    0.210335365646943  0.0000
  O3     O3        0.023948989590930    0.963845872432115    0.703325627771128  0.0000
  O1     O1        0.476001971276260    0.996765830706199    0.700950619613873  0.0000
  O1     O1        0.623916952397886    0.107461104197820    0.132168020029959  0.0000
  O1     O1        0.882402168517586    0.825564320129416    0.141592591326092  0.0000
  O1     O1        0.370328463278929    0.102638152186256    0.879542353002441  0.0000
  O1     O1        0.128735480803084    0.862678007244277    0.882678376898077  0.0000
  O1     O1        0.415384702391525    0.762424183148478    0.881573082977199  0.0000
  O1     O1        0.082538400877091    0.201350102524554    0.889568455910120  0.0000
  O1     O1        0.586960679163582    0.766648416038880    0.125943558716489  0.0000
  O3     O3        0.902284383278457    0.182367063020185    0.122878157535831  0.0000
  O1     O1        0.519245636824286    0.010476156466777    0.956249038185206  0.0000
  O1     O1        0.979207225807696    0.948849975081021    0.958474936583367  0.0000
  O1     O1        0.162839357925545    0.511270407298527    0.351511437211966  0.0000
  O1     O1        0.347031670119049    0.459503926824012    0.348633326354924  0.0000
  O1     O1        0.848851815221358    0.503061382313839    0.670609183879310  0.0000
  O1     O1        0.662944027164480    0.454544499853700    0.665174444089189  0.0000
  O1     O1        0.240666363964730    0.210393851212656    0.294540210152090  0.0000
  O1     O1        0.265795590394769    0.759104905712824    0.288969631229391  0.0000
  O1     O1        0.766840298596780    0.201916087075039    0.715192529913984  0.0000
  O1     O1        0.741296729956800    0.754034708705138    0.718058060931964  0.0000
  O1     O1        0.119111491440474    0.315910323904262    0.139260693297040  0.0000
  O1     O1        0.384736687401415    0.647028141075709    0.131187518582153  0.0000
  O3     O3        0.878456730456518    0.309505958844516    0.890475174940957  0.0000
  O1     O1        0.622754917556961    0.655317614306978    0.878204715766343  0.0000
  O1     O1        0.863158466195942    0.712571378820747    0.887338493704014  0.0000
  O1     O1        0.640313281526257    0.237105514681817    0.877134936088667  0.0000
  O1     O1        0.138818623879211    0.727658151538553    0.135270219072414  0.0000
  O1     O1        0.362173428865681    0.248403658349257    0.129850971552375  0.0000
  O1     O1        0.654233460051508    0.448144084674939    0.094552044289572  0.0000
  O3     O3        0.839973543474898    0.484383978344251    0.095773793417434  0.0000
  O1     O1        0.341745071687898    0.451535212708444    0.914158265246363  0.0000
  O1     O1        0.155992587147799    0.513638814457817    0.922174359349348  0.0000
  O3     O3        0.765947053152594    0.207380046002863    0.031787557742820  0.0000
  O1     O1        0.737865830206193    0.744509069489847    0.046984096247201  0.0000
  O1     O1        0.232657894761872    0.209150214990202    0.976392206088780  0.0000
  O1     O1        0.266710827898185    0.754106889000083    0.977870565295367  0.0000
