data_c00255.vasp
_audit_creation_method             Generated by GULP
_audit_author_name                 Salvador R. G. Balestra
_symmetry_space_group_name_H-M     'P 1             '
_symmetry_Int_Tables_number        1

loop_
_symmetry_equiv_pos_site_id
_symmetry_equiv_pos_as_xyz
_cell_length_a                       17.5096
_cell_length_b                        7.8540
_cell_length_c                       10.2002
_cell_angle_alpha                   89.8661
_cell_angle_beta                    90.5412
_cell_angle_gamma                   91.6630

loop_
_atom_site_label
_atom_site_type_symbol
_atom_site_fract_x
_atom_site_fract_y
_atom_site_fract_z
_atom_site_charge
  Ge     Ge        0.052090000000021    0.000000000000000    0.372269999999958  0.0000
  Ge     Ge        0.449436196437348    0.056504403490350    0.381176227667878  0.0000
  Ge     Ge        0.557762879300425    0.000760153930556    0.133105258929145  0.0000
  Ge     Ge        0.452473120729961    0.064712179815584    0.876335633180164  0.0000
  Ge     Ge        0.047869014719720    0.998312324795393    0.870042506827074  0.0000
  Ge     Ge        0.174662042693939    0.285845693701152    0.263504533210289  0.0000
  Ge     Ge        0.326840453449925    0.771506455357832    0.265709752264787  0.0000
  Ge     Ge        0.853538742079109    0.363876329809202    0.690850865044673  0.0000
  Ge     Ge        0.648717168775958    0.693742992629523    0.695610591646855  0.0000
  Ge     Ge        0.832306562787946    0.764631998188443    0.693665176155609  0.0000
  Ge     Ge        0.669709329042814    0.292671101321564    0.699690294849238  0.0000
  Ge     Ge        0.144350237592161    0.685965234689033    0.260724431595373  0.0000
  Ge     Ge        0.357061288616490    0.370730578467678    0.262647670028473  0.0000
  Ge     Ge        0.677215885872805    0.289155119429000    0.017043658571825  0.0000
  Ge     Ge        0.833656528954339    0.768650091448238    0.012340467253070  0.0000
  Ge     Ge        0.353545551417967    0.374331237885337    0.943323785895770  0.0000
  Ge     Ge        0.146930808823413    0.688017939681680    0.942282275445841  0.0000
  Ge     Ge        0.327834772891124    0.776252634641083    0.948452177125321  0.0000
  Ge     Ge        0.172806613904141    0.286349513102624    0.945678177506113  0.0000
  Ge     Ge        0.650598620079917    0.689279295965285    0.014321991582831  0.0000
  Ge     Ge        0.860253094753585    0.367711486923037    0.007489261090350  0.0000
  Si     Si        0.946609560217066    0.054341882699238    0.617678006073470  0.0000
  Si     Si        0.552892430357588    0.003903966029658    0.629072786271099  0.0000
  Si     Si        0.949265023748266    0.057222289121341    0.122444271332750  0.0000
  O1     O1        0.130085254589776    0.133644239496812    0.357883549905655  0.0000
  O1     O1        0.371420951554823    0.922995653082136    0.361414994475487  0.0000
  O3     O3        0.913057138849525    0.240690987398846    0.597053655961041  0.0000
  O3     O3        0.585325430268195    0.816861627750236    0.607409377366787  0.0000
  O3     O3        0.880273799614761    0.910848450523384    0.595195577672200  0.0000
  O3     O3        0.619747351593643    0.145275247690323    0.604146805469006  0.0000
  O1     O1        0.078001893146834    0.794498742308123    0.347942163922465  0.0000
  O1     O1        0.424399844363979    0.261991108474954    0.349556889488786  0.0000
  O3     O3        0.019826814469923    0.020766438215345    0.531690471330831  0.0000
  O3     O3        0.478250086831156    0.039576526005405    0.544515789925537  0.0000
  O3     O3        0.976784078402567    0.055692186813769    0.272408373624006  0.0000
  O1     O1        0.526838920993037    0.000134548016128    0.291969000118190  0.0000
  O3     O3        0.971569273876862    0.040193020598036    0.770933191922639  0.0000
  O3     O3        0.529748546618612    0.019523182884815    0.782149241440260  0.0000
  O1     O1        0.635304339302107    0.137426640153861    0.114241893606707  0.0000
  O3     O3        0.876950378610061    0.928297777636144    0.104025349277755  0.0000
  O1     O1        0.417412439718910    0.264709039304299    0.852017414465390  0.0000
  O1     O1        0.083202394696750    0.798616638459232    0.848992234597597  0.0000
  O1     O1        0.378699938706871    0.917676566889027    0.854500791176751  0.0000
  O1     O1        0.121170208333719    0.145764239162397    0.850572730539070  0.0000
  O1     O1        0.583759883766336    0.796362073129119    0.098702122123396  0.0000
  O3     O3        0.927597743227523    0.250191836465863    0.088517242175281  0.0000
  O1     O1        0.482492478984097    0.061397601010535    0.037630774869750  0.0000
  O3     O3        0.018374377280718    0.999137375696295    0.032352195378610  0.0000
  O1     O1        0.157248405977306    0.486190641408860    0.323405488876734  0.0000
  O1     O1        0.344628096297323    0.570522457678422    0.325059818441775  0.0000
  O1     O1        0.844925586500668    0.564598024516437    0.628410596789477  0.0000
  O1     O1        0.655193284829029    0.492515346510044    0.634005061035370  0.0000
  O1     O1        0.271368449865029    0.257204410773756    0.265503999451527  0.0000
  O1     O1        0.230153722152729    0.799444330579580    0.264033148174537  0.0000
  O1     O1        0.765940236087173    0.259054455766563    0.697298362021107  0.0000
  O1     O1        0.736214001041566    0.799526113263761    0.694535364511411  0.0000
  O1     O1        0.141454585079013    0.270613544266119    0.104772591575009  0.0000
  O1     O1        0.360651425706487    0.789627019408849    0.108135795809641  0.0000
  O1     O1        0.888381282927427    0.390029828894171    0.847490343285596  0.0000
  O1     O1        0.619824837437736    0.668536876934294    0.854532136354278  0.0000
  O1     O1        0.865038567223089    0.775270424478335    0.853115674919644  0.0000
  O1     O1        0.640219927480451    0.279953049955486    0.859897335886189  0.0000
  O1     O1        0.115137754216166    0.664840890317191    0.100678520350298  0.0000
  O1     O1        0.385314610655729    0.394085298815726    0.103046240387034  0.0000
  O1     O1        0.662189878475059    0.489727080523576    0.078334751238496  0.0000
  O1     O1        0.852519262452450    0.568030720819323    0.072579011895103  0.0000
  O1     O1        0.340118933107524    0.574508318748419    0.885201343529885  0.0000
  O1     O1        0.160424937635507    0.488832923201918    0.883062037266541  0.0000
  O1     O1        0.773697722383597    0.260241431174537    0.010341353157428  0.0000
  O1     O1        0.737278302115234    0.798850968487542    0.015211131661397  0.0000
  O1     O1        0.269156433938190    0.254283242292342    0.945088807306910  0.0000
  O1     O1        0.231421522160652    0.807721742642683    0.947478619450009  0.0000
