data_c00265.vasp
_audit_creation_method             Generated by GULP
_audit_author_name                 Salvador R. G. Balestra
_symmetry_space_group_name_H-M     'P 1             '
_symmetry_Int_Tables_number        1

loop_
_symmetry_equiv_pos_site_id
_symmetry_equiv_pos_as_xyz
_cell_length_a                       17.5335
_cell_length_b                        7.8502
_cell_length_c                       10.1235
_cell_angle_alpha                   90.3148
_cell_angle_beta                    89.3419
_cell_angle_gamma                   88.0748

loop_
_atom_site_label
_atom_site_type_symbol
_atom_site_fract_x
_atom_site_fract_y
_atom_site_fract_z
_atom_site_charge
  Ge     Ge        0.052090000000021    0.000000000000000    0.372269999999958  0.0000
  Ge     Ge        0.551224159269911    0.000226559087882    0.601038659704695  0.0000
  Ge     Ge        0.546025059376427    0.003331838543625    0.118555699335286  0.0000
  Ge     Ge        0.940025190165126    0.942735385400457    0.128229445732584  0.0000
  Ge     Ge        0.447002078633273    0.939048200459950    0.858643622985527  0.0000
  Ge     Ge        0.044446316299547    0.006489270799161    0.868933182913421  0.0000
  Ge     Ge        0.141416709772094    0.320091257037766    0.257453423238495  0.0000
  Ge     Ge        0.350113513270647    0.641949460863698    0.250529525127190  0.0000
  Ge     Ge        0.830529498514657    0.229763387821826    0.688304109565018  0.0000
  Ge     Ge        0.672221377426403    0.713059144616214    0.682997102699325  0.0000
  Ge     Ge        0.854444654625484    0.631538746936022    0.687971668252826  0.0000
  Ge     Ge        0.648412797903519    0.310926240420963    0.677204128628429  0.0000
  Ge     Ge        0.326275672494452    0.243840347720296    0.257100265852664  0.0000
  Ge     Ge        0.638522538871024    0.314748042884006    0.997868337910844  0.0000
  Ge     Ge        0.850700970765824    0.628441751811601    0.007324986127638  0.0000
  Ge     Ge        0.323674817372720    0.229656613549961    0.937826440216698  0.0000
  Ge     Ge        0.169594290292926    0.717586693499781    0.941175376314390  0.0000
  Ge     Ge        0.349209945858450    0.630928854902719    0.929478116571397  0.0000
  Ge     Ge        0.142542007917458    0.314943482205181    0.939020628323347  0.0000
  Ge     Ge        0.668548690601875    0.716695059446769    0.002975292704081  0.0000
  Ge     Ge        0.820410236371892    0.228460418412015    0.008965479782866  0.0000
  Si     Si        0.439992403263420    0.953569395990883    0.367010985828945  0.0000
  Si     Si        0.948002766226806    0.940929981654654    0.617567984258535  0.0000
  Si     Si        0.169050546311211    0.713207223099076    0.254015085363497  0.0000
  O1     O1        0.079689853311652    0.205700937351109    0.352041214364046  0.0000
  O3     O3        0.413567984855058    0.764321206688924    0.334519054062286  0.0000
  O3     O3        0.881494525758845    0.083135088192483    0.590821234128212  0.0000
  O1     O1        0.624135706406011    0.850603920951135    0.580328931259362  0.0000
  O3     O3        0.917143813547053    0.752695884629980    0.596430700217887  0.0000
  O1     O1        0.587192212329571    0.198358594208440    0.580820025815148  0.0000
  O3     O3        0.128713950415044    0.861607088599366    0.340827017545320  0.0000
  O3     O3        0.369772884854346    0.086404293327633    0.350863724501280  0.0000
  O3     O3        0.024503656702660    0.974362091327415    0.536637007077234  0.0000
  O3     O3        0.468981925493951    0.959558247491251    0.517288028627280  0.0000
  O1     O1        0.971685186269741    0.954124669496850    0.287545793236734  0.0000
  O3     O3        0.513929510437007    0.003199091519654    0.281383810587583  0.0000
  O3     O3        0.968006360073013    0.960938195983517    0.773100002054845  0.0000
  O1     O1        0.524050602556008    0.984953727134181    0.765777505114431  0.0000
  O1     O1        0.570328248385651    0.208783424776131    0.083067857137075  0.0000
  O1     O1        0.915699414850424    0.736225535652802    0.096711580687444  0.0000
  O1     O1        0.373055895723000    0.087005898210587    0.840072383120384  0.0000
  O1     O1        0.118005306563607    0.857439646029703    0.848462253493120  0.0000
  O1     O1        0.412729560904926    0.738199004326772    0.834311427619763  0.0000
  O1     O1        0.080111553783353    0.205281814433529    0.844297118434457  0.0000
  O1     O1        0.624731691749903    0.868611192336892    0.101315075846051  0.0000
  O1     O1        0.861556474081453    0.076547011774283    0.107062001663090  0.0000
  O1     O1        0.473283265885071    0.939319833153366    0.022836808203809  0.0000
  O1     O1        0.014631958463638    0.003171057698920    0.031118470182562  0.0000
  O3     O3        0.150846161339872    0.528276150881144    0.313148072390598  0.0000
  O1     O1        0.346324389396113    0.442444805591138    0.318182423316194  0.0000
  O1     O1        0.845935853377174    0.430677093805309    0.625314117350946  0.0000
  O1     O1        0.661503577154947    0.510726041753355    0.619014109042775  0.0000
  O1     O1        0.229830701933753    0.219547914717373    0.261252854898249  0.0000
  O3     O3        0.259625922250339    0.738018015276376    0.251636232127286  0.0000
  O1     O1        0.734427999694301    0.197033712056728    0.682477904841694  0.0000
  O1     O1        0.768370979958112    0.744267722387044    0.688601678387235  0.0000
  O1     O1        0.108475570599740    0.326692026925899    0.099485869716151  0.0000
  O1     O1        0.379832186306435    0.614933220835192    0.090615547763522  0.0000
  O1     O1        0.857842402569581    0.218573887758372    0.850754404358974  0.0000
  O1     O1        0.636941110685836    0.730950148722820    0.842455825990381  0.0000
  O1     O1        0.884353461125992    0.607243591361607    0.847508747412946  0.0000
  O1     O1        0.612325790257076    0.331583094242303    0.835281381211125  0.0000
  O3     O3        0.137996783760399    0.724902616008120    0.104988194603310  0.0000
  O1     O1        0.358404416563628    0.222818496353891    0.096875597672980  0.0000
  O1     O1        0.649475490299174    0.515571860353507    0.060338011101814  0.0000
  O1     O1        0.836682535637793    0.429769566252339    0.070293598612961  0.0000
  O1     O1        0.335697746005980    0.430593537620322    0.872237195284325  0.0000
  O1     O1        0.156142320896330    0.514214039018619    0.880899731427516  0.0000
  O1     O1        0.724067779268016    0.200636947668583    0.003085932602295  0.0000
  O1     O1        0.765140443523212    0.742488839775741    0.003786098832091  0.0000
  O1     O1        0.227716408882005    0.197561325276304    0.943947678408779  0.0000
  O1     O1        0.264933060153655    0.752286467079868    0.933561838968439  0.0000
