data_c00250.vasp
_audit_creation_method             Generated by GULP
_audit_author_name                 Salvador R. G. Balestra
_symmetry_space_group_name_H-M     'P 1             '
_symmetry_Int_Tables_number        1

loop_
_symmetry_equiv_pos_site_id
_symmetry_equiv_pos_as_xyz
_cell_length_a                       17.7357
_cell_length_b                        7.8835
_cell_length_c                       10.3599
_cell_angle_alpha                   89.6534
_cell_angle_beta                    89.9323
_cell_angle_gamma                   89.5644

loop_
_atom_site_label
_atom_site_type_symbol
_atom_site_fract_x
_atom_site_fract_y
_atom_site_fract_z
_atom_site_charge
  Ge     Ge        0.052090000000021    0.000000000000000    0.372269999999958  0.0000
  Ge     Ge        0.452451846821445    0.960438822684310    0.375475197421231  0.0000
  Ge     Ge        0.559956798948562    0.957774888208075    0.125073251348867  0.0000
  Ge     Ge        0.945382535252804    0.978748940959046    0.119762434245188  0.0000
  Ge     Ge        0.454120849446579    0.964174065546265    0.871488796983773  0.0000
  Ge     Ge        0.053253188059871    0.990148774396778    0.870524779528529  0.0000
  Ge     Ge        0.151500508459775    0.308205613273102    0.263252716677183  0.0000
  Ge     Ge        0.354063951324853    0.651927736237258    0.261798033424985  0.0000
  Ge     Ge        0.850781997085781    0.293071149597608    0.691015206041613  0.0000
  Ge     Ge        0.654959202391785    0.658893020858156    0.697894920216896  0.0000
  Ge     Ge        0.838280587293210    0.698925536268745    0.697012866328107  0.0000
  Ge     Ge        0.668806986685019    0.253962152008714    0.690984096131253  0.0000
  Ge     Ge        0.173738707583321    0.714137012356108    0.258202680890290  0.0000
  Ge     Ge        0.331986092798637    0.245392466107985    0.261777620022027  0.0000
  Ge     Ge        0.675429728397893    0.239144758738682    0.003793646985473  0.0000
  Ge     Ge        0.834008213417404    0.687265690803765    0.007677324700576  0.0000
  Ge     Ge        0.332697521857485    0.244155207677852    0.948195178688916  0.0000
  Ge     Ge        0.174477918663027    0.709233986587779    0.943743840933332  0.0000
  Ge     Ge        0.354923634267707    0.649682704896021    0.947210396118323  0.0000
  Ge     Ge        0.151963387900287    0.304406453961340    0.949137395406488  0.0000
  Ge     Ge        0.652390020099782    0.641174530179877    0.011430726195454  0.0000
  Si     Si        0.950505968441352    0.984292193141455    0.621512696918090  0.0000
  Si     Si        0.556299996571726    0.969251145645206    0.622022174185428  0.0000
  Si     Si        0.852198671993556    0.289428095602816    0.996953646175986  0.0000
  O1     O1        0.087638003063450    0.200130668093425    0.355619798666395  0.0000
  O1     O1        0.418584059849515    0.760324074575009    0.351413593718393  0.0000
  O3     O3        0.911638427826839    0.168116685124937    0.602074092576372  0.0000
  O3     O3        0.597366345241566    0.788327636663775    0.604545188799536  0.0000
  O3     O3        0.888499181583472    0.838668874222261    0.601276118251720  0.0000
  O3     O3        0.616117500454289    0.118569888761435    0.596876134885930  0.0000
  O1     O1        0.123464651904849    0.856438784376036    0.347453939414505  0.0000
  O1     O1        0.380893606446107    0.104804642830315    0.356392314628637  0.0000
  O3     O3        0.022079055852444    0.966848631489862    0.530179025835538  0.0000
  O3     O3        0.483247139410519    0.981749899453432    0.533498121911270  0.0000
  O1     O1        0.974566728063953    0.974644178168384    0.277059242267075  0.0000
  O1     O1        0.529308356781475    0.994636172712509    0.279043988249039  0.0000
  O3     O3        0.978023985443168    0.965117514029177    0.769411726852622  0.0000
  O3     O3        0.529638938902980    0.989542633491554    0.770364418658515  0.0000
  O1     O1        0.636481729257506    0.085302030577795    0.096374540778086  0.0000
  O1     O1        0.880594964999020    0.819392993902419    0.108761818408642  0.0000
  O1     O1        0.381869609047268    0.108920426454797    0.850829588259624  0.0000
  O1     O1        0.125308447931502    0.845552522259979    0.846620475817683  0.0000
  O1     O1        0.418271426578908    0.763560617581869    0.857721643353723  0.0000
  O1     O1        0.089746717688216    0.190404931381541    0.858718692645924  0.0000
  O1     O1        0.589282002952152    0.751360228768341    0.103614105911838  0.0000
  O3     O3        0.909425863330230    0.177608506903240    0.080398083621982  0.0000
  O1     O1        0.486044063912239    0.003753507669052    0.025022836334332  0.0000
  O1     O1        0.022515390775149    0.945490244577733    0.024642107344508  0.0000
  O1     O1        0.161404728751021    0.510946782237637    0.317516810504119  0.0000
  O1     O1        0.344206579673835    0.449076178686588    0.317932973942387  0.0000
  O1     O1        0.849129580687932    0.497461372770513    0.635292685189042  0.0000
  O1     O1        0.658075011291562    0.458723809346578    0.634843982531998  0.0000
  O1     O1        0.237296356116311    0.203935253843840    0.265886725086083  0.0000
  O1     O1        0.268481986765780    0.756810101426651    0.264432370483013  0.0000
  O1     O1        0.763059384032984    0.203983308222656    0.682653839837544  0.0000
  O1     O1        0.743678767478814    0.745636506992810    0.698663999979555  0.0000
  O1     O1        0.120107376784481    0.309974772513070    0.106033603426799  0.0000
  O1     O1        0.385638686895520    0.646962978096918    0.104846811154315  0.0000
  O3     O3        0.881369066813702    0.303006209676735    0.849968042559397  0.0000
  O1     O1        0.621813183710297    0.645823526904623    0.853310852829010  0.0000
  O1     O1        0.868891324507469    0.708549580300989    0.854107434196327  0.0000
  O1     O1        0.640518209719440    0.242422509866848    0.849303221678579  0.0000
  O1     O1        0.143549002993618    0.718974212922179    0.101270706431242  0.0000
  O1     O1        0.363874813181774    0.233868583766174    0.105650020256181  0.0000
  O1     O1        0.658105816614715    0.436650546031575    0.067385206621427  0.0000
  O3     O3        0.844351609466826    0.476206524627409    0.056174968544807  0.0000
  O1     O1        0.345680912326604    0.448355323188604    0.891155777706012  0.0000
  O1     O1        0.162251130273335    0.504693697619927    0.889222395533306  0.0000
  O3     O3        0.771233308190483    0.199049912344605    0.994019348579020  0.0000
  O1     O1        0.739786194186263    0.733843739415709    0.011889098280171  0.0000
  O1     O1        0.238198452188066    0.201315418688730    0.948868887326765  0.0000
  O1     O1        0.268977710543960    0.752940995157664    0.943401146380271  0.0000
