data_c00244.vasp
_audit_creation_method             Generated by GULP
_audit_author_name                 Salvador R. G. Balestra
_symmetry_space_group_name_H-M     'P 1             '
_symmetry_Int_Tables_number        1

loop_
_symmetry_equiv_pos_site_id
_symmetry_equiv_pos_as_xyz
_cell_length_a                       17.5859
_cell_length_b                        7.8424
_cell_length_c                       10.1950
_cell_angle_alpha                   90.5329
_cell_angle_beta                    89.7752
_cell_angle_gamma                   91.4288

loop_
_atom_site_label
_atom_site_type_symbol
_atom_site_fract_x
_atom_site_fract_y
_atom_site_fract_z
_atom_site_charge
  Ge     Ge        0.052090000000021    0.000000000000000    0.372269999999958  0.0000
  Ge     Ge        0.447981949320028    0.058271516631830    0.383998526355485  0.0000
  Ge     Ge        0.943756678840212    0.044714884129653    0.624562234530609  0.0000
  Ge     Ge        0.944966650101452    0.059048933401290    0.123268053346157  0.0000
  Ge     Ge        0.446505323450612    0.057219018884911    0.874010301624909  0.0000
  Ge     Ge        0.050643622569478    0.998010970868671    0.873416217109271  0.0000
  Ge     Ge        0.171397009012502    0.294862308977875    0.305847481415053  0.0000
  Ge     Ge        0.325562445044005    0.773606510084523    0.305784321327357  0.0000
  Ge     Ge        0.849242848177927    0.359376431941931    0.742622580551820  0.0000
  Ge     Ge        0.639083870060943    0.684321421254117    0.740123628878264  0.0000
  Ge     Ge        0.821985896184986    0.759898186247902    0.738604364717182  0.0000
  Ge     Ge        0.666885676078363    0.283650587570867    0.737310535675640  0.0000
  Ge     Ge        0.352972473853124    0.374084485405217    0.309640275284738  0.0000
  Ge     Ge        0.661983125524391    0.286761326804832    0.056153623595997  0.0000
  Ge     Ge        0.821284821019143    0.767665032120307    0.055340856932069  0.0000
  Ge     Ge        0.353213726034069    0.370822869237985    0.990467324083082  0.0000
  Ge     Ge        0.144134100064145    0.688351108804238    0.994235934565975  0.0000
  Ge     Ge        0.323918787980848    0.774150243005147    0.986127716284028  0.0000
  Ge     Ge        0.171933988033896    0.285233999238787    0.988465274772486  0.0000
  Ge     Ge        0.640054179066342    0.689382724958290    0.057069814912885  0.0000
  Ge     Ge        0.842660465624114    0.366142920514399    0.063653426281931  0.0000
  Si     Si        0.551844476963459    0.996007947442572    0.627033163377242  0.0000
  Si     Si        0.545003223435718    0.997054725061021    0.127673490620058  0.0000
  Si     Si        0.148954131650885    0.688547421366353    0.307055467106925  0.0000
  O1     O1        0.120376967496604    0.156331992854400    0.402733646299880  0.0000
  O1     O1        0.371300762269440    0.920624933043584    0.403380795097131  0.0000
  O1     O1        0.917627126037385    0.249668530963421    0.660203042267680  0.0000
  O3     O3        0.573793074684725    0.802610577667403    0.655550907836083  0.0000
  O1     O1        0.866554461245292    0.910599991537898    0.644232422112791  0.0000
  O3     O3        0.623814819277851    0.122079956827086    0.646916865380394  0.0000
  O3     O3        0.089441562070763    0.798369819653028    0.389827527259073  0.0000
  O1     O1        0.416686528687109    0.261726938971967    0.400453515893281  0.0000
  O1     O1        0.972233742022261    0.029408948285576    0.463008110078515  0.0000
  O3     O3        0.525029890879463    0.010224532631732    0.476987904640779  0.0000
  O1     O1        0.023968498733846    0.017716832065700    0.210817354306426  0.0000
  O3     O3        0.474272845741129    0.031791772020874    0.219883155073553  0.0000
  O1     O1        0.022415070299781    0.989414195404513    0.712304083092803  0.0000
  O3     O3        0.480142525288772    0.051928501053327    0.714591747998722  0.0000
  O3     O3        0.610672719621206    0.142037178361963    0.149264633072721  0.0000
  O1     O1        0.872903959543868    0.909750881191854    0.147902354104372  0.0000
  O1     O1        0.420067979604004    0.263032036049094    0.902812252190055  0.0000
  O1     O1        0.073427560680173    0.794276169304071    0.919193481095881  0.0000
  O1     O1        0.369496153037331    0.920816145325516    0.889000464828825  0.0000
  O1     O1        0.127444580138252    0.135655002122787    0.890952622281728  0.0000
  O3     O3        0.578681166286313    0.810610451153347    0.150433541204019  0.0000
  O1     O1        0.906591274959034    0.255808175365096    0.153347411272778  0.0000
  O3     O3        0.519208133265423    0.999451724013604    0.975711482843216  0.0000
  O1     O1        0.973101577369984    0.063033749801615    0.960691888769712  0.0000
  O3     O3        0.159944839952414    0.502513098341924    0.365979262578282  0.0000
  O1     O1        0.343482635797228    0.575790062040679    0.369350464497781  0.0000
  O1     O1        0.839054233314857    0.558858898476254    0.677933049444258  0.0000
  O1     O1        0.648613988257261    0.482622776038085    0.675279371073897  0.0000
  O1     O1        0.267142259841542    0.261496767595211    0.309679788634386  0.0000
  O3     O3        0.227976257739803    0.798184141411288    0.304614705754405  0.0000
  O1     O1        0.762667334980793    0.251049094691452    0.735058623080552  0.0000
  O1     O1        0.725690471354482    0.789585168610411    0.739632039410839  0.0000
  O1     O1        0.139500581747560    0.268673961870590    0.147577154502926  0.0000
  O1     O1        0.355205933144183    0.790207742034887    0.145459218205048  0.0000
  O1     O1        0.873520648616286    0.386752206477017    0.903921230248710  0.0000
  O1     O1        0.608408045984363    0.661515272690539    0.898771728281310  0.0000
  O1     O1        0.855335600503693    0.778491771865176    0.896737529353332  0.0000
  O1     O1        0.632952632387452    0.276127285332291    0.895351780347527  0.0000
  O3     O3        0.120952845133772    0.660780681742874    0.158228620238485  0.0000
  O1     O1        0.383404595975894    0.390678372368727    0.149924750239222  0.0000
  O1     O1        0.648667336529542    0.489530775373678    0.119569702697314  0.0000
  O1     O1        0.830817280012613    0.567641908546552    0.122347495377748  0.0000
  O1     O1        0.340303731522092    0.570317263538052    0.929134736076662  0.0000
  O1     O1        0.154476769566087    0.487073486605623    0.931115520610745  0.0000
  O1     O1        0.757532188334237    0.250942660513382    0.061263203857662  0.0000
  O1     O1        0.725425404907153    0.801634487450300    0.051823725709988  0.0000
  O1     O1        0.268301413897321    0.256496545559681    0.988323236057924  0.0000
  O1     O1        0.227668945971845    0.805258981505802    0.980732314557914  0.0000
