data_c00241.vasp
_audit_creation_method             Generated by GULP
_audit_author_name                 Salvador R. G. Balestra
_symmetry_space_group_name_H-M     'P 1             '
_symmetry_Int_Tables_number        1

loop_
_symmetry_equiv_pos_site_id
_symmetry_equiv_pos_as_xyz
_cell_length_a                       17.7709
_cell_length_b                        7.8771
_cell_length_c                       10.4068
_cell_angle_alpha                   90.5450
_cell_angle_beta                    89.9824
_cell_angle_gamma                   90.1617

loop_
_atom_site_label
_atom_site_type_symbol
_atom_site_fract_x
_atom_site_fract_y
_atom_site_fract_z
_atom_site_charge
  Ge     Ge        0.052090000000021    0.000000000000000    0.372269999999958  0.0000
  Ge     Ge        0.451572276519600    0.970480703261320    0.404452076675851  0.0000
  Ge     Ge        0.948601565639803    0.009119520013837    0.626122467863198  0.0000
  Ge     Ge        0.949241166518822    0.998533002752114    0.116336696244839  0.0000
  Ge     Ge        0.451237688149464    0.969286355508579    0.908043715337931  0.0000
  Ge     Ge        0.059203812671123    0.996169215730097    0.871052046570124  0.0000
  Ge     Ge        0.152511688831322    0.312143575004827    0.297144114826130  0.0000
  Ge     Ge        0.352995505708157    0.657565133775448    0.296383465477802  0.0000
  Ge     Ge        0.846635040308004    0.316626426401795    0.733060491489830  0.0000
  Ge     Ge        0.647456951903644    0.671541033445690    0.738117483453377  0.0000
  Ge     Ge        0.828431807733567    0.721360325558415    0.743022438958787  0.0000
  Ge     Ge        0.665572073533232    0.266449330642693    0.732012250046638  0.0000
  Ge     Ge        0.173355016528184    0.719900403593639    0.297079765778258  0.0000
  Ge     Ge        0.331068567576639    0.251421841439364    0.296491839752551  0.0000
  Ge     Ge        0.666395241421216    0.261819998476067    0.044525644271702  0.0000
  Ge     Ge        0.826786708401212    0.715286385111674    0.054838543576674  0.0000
  Ge     Ge        0.330369775777033    0.249295454844138    0.984415582011734  0.0000
  Ge     Ge        0.172726032856362    0.706046172569142    0.986000315096448  0.0000
  Ge     Ge        0.353432391541033    0.651123396746412    0.982497646749570  0.0000
  Ge     Ge        0.645259845468592    0.666983695149050    0.050118976616994  0.0000
  Ge     Ge        0.847674486058914    0.312926654851591    0.046766310058611  0.0000
  Si     Si        0.552645901905349    0.979994526507655    0.656401551172078  0.0000
  Si     Si        0.553742623743559    0.979456091867186    0.156644725539625  0.0000
  Si     Si        0.153532412506031    0.305470767056589    0.991483338591017  0.0000
  O1     O1        0.088725927301786    0.201815866725990    0.386404391978535  0.0000
  O1     O1        0.417706103827027    0.768856506623208    0.385438018343670  0.0000
  O1     O1        0.911047933213830    0.208174606605706    0.642667778275099  0.0000
  O3     O3        0.589274779004807    0.794408598327007    0.643398872671616  0.0000
  O1     O1        0.879195041118380    0.864193454966479    0.656990298787237  0.0000
  O3     O3        0.615569178096953    0.124698598005311    0.636961731140887  0.0000
  O1     O1        0.122711563472728    0.853722898743858    0.393723649590461  0.0000
  O1     O1        0.379875907970925    0.112727241307609    0.389236505474935  0.0000
  O1     O1        0.976201856331172    0.975950094636048    0.469142301601406  0.0000
  O3     O3        0.484138516808901    0.997958741857300    0.559731956454784  0.0000
  O1     O1        0.023601705649117    0.970418261775093    0.215015968909697  0.0000
  O3     O3        0.525245840790584    0.009196318485972    0.300839849067352  0.0000
  O1     O1        0.029728851453413    0.990499226383806    0.714128487557688  0.0000
  O3     O3        0.522373244535741    0.006117942644625    0.801811517151171  0.0000
  O3     O3        0.622023445456226    0.108726591446292    0.133067477415302  0.0000
  O1     O1        0.877873706763708    0.854452998010634    0.145073142818903  0.0000
  O1     O1        0.375846006301893    0.104505478266126    0.890602980345836  0.0000
  O1     O1        0.123998229938481    0.836669350964858    0.886549766234880  0.0000
  O1     O1        0.417013549867038    0.766592919631865    0.895195544662670  0.0000
  O3     O3        0.095861086993452    0.195219121796362    0.907601002515205  0.0000
  O3     O3        0.581957230730655    0.786533831205277    0.137755737063146  0.0000
  O1     O1        0.910247642727989    0.197114211388784    0.133824009564218  0.0000
  O3     O3        0.484979924559882    0.014795701176656    0.060854306808066  0.0000
  O1     O1        0.980067788627837    0.965009647765162    0.961141347484303  0.0000
  O1     O1        0.161385878087865    0.515194242267260    0.351767870587155  0.0000
  O1     O1        0.342387644351950    0.456477836328988    0.353582468884890  0.0000
  O1     O1        0.838398481247437    0.520087396553711    0.678929717199733  0.0000
  O1     O1        0.653356531503140    0.470344736184012    0.676146334650950  0.0000
  O1     O1        0.236713077330798    0.205738216275692    0.302448927729749  0.0000
  O1     O1        0.267916232844986    0.762967332670260    0.299903085858643  0.0000
  O1     O1        0.759545787932760    0.219261460585104    0.726816154767182  0.0000
  O1     O1        0.734196943546329    0.768385122411022    0.742566978555721  0.0000
  O3     O3        0.123635556444900    0.316612614739751    0.137209174433365  0.0000
  O1     O1        0.383026333636117    0.648084342755497    0.139773032051581  0.0000
  O1     O1        0.877631882691249    0.318193738816215    0.889547278510515  0.0000
  O1     O1        0.614351212427777    0.663775268026526    0.893408492963038  0.0000
  O1     O1        0.859023035298674    0.719746823661561    0.898827024935611  0.0000
  O1     O1        0.635265467990247    0.263007593547737    0.888648939430852  0.0000
  O1     O1        0.141864973244971    0.732541516729531    0.140667928987000  0.0000
  O1     O1        0.361676762513472    0.241147316657538    0.140402130694456  0.0000
  O1     O1        0.650680983873911    0.463259369896661    0.106100870888379  0.0000
  O1     O1        0.838965916647037    0.511980795487054    0.110809162448160  0.0000
  O1     O1        0.347269577529449    0.448578103762862    0.924055095271992  0.0000
  O3     O3        0.161544270599266    0.494818806070611    0.937432185401791  0.0000
  O1     O1        0.760369107433291    0.216805031469979    0.045444166980875  0.0000
  O1     O1        0.732570062864616    0.760332783808504    0.056260823667639  0.0000
  O3     O3        0.234272610459519    0.212529989583787    0.988601906482548  0.0000
  O1     O1        0.267070444852157    0.749592395968060    0.979284420948423  0.0000
