data_c00264.vasp
_audit_creation_method             Generated by GULP
_audit_author_name                 Salvador R. G. Balestra
_symmetry_space_group_name_H-M     'P 1             '
_symmetry_Int_Tables_number        1

loop_
_symmetry_equiv_pos_site_id
_symmetry_equiv_pos_as_xyz
_cell_length_a                       17.7789
_cell_length_b                        7.8809
_cell_length_c                       10.2370
_cell_angle_alpha                   89.0582
_cell_angle_beta                    90.0436
_cell_angle_gamma                   89.6594

loop_
_atom_site_label
_atom_site_type_symbol
_atom_site_fract_x
_atom_site_fract_y
_atom_site_fract_z
_atom_site_charge
  Ge     Ge        0.052090000000021    0.000000000000000    0.372269999999958  0.0000
  Ge     Ge        0.550057912910602    0.047538293542787    0.595723318143407  0.0000
  Ge     Ge        0.550063564751833    0.039558066219339    0.113305217743792  0.0000
  Ge     Ge        0.940934273243077    0.008298347713715    0.120968917386046  0.0000
  Ge     Ge        0.446634738830004    0.035303469078217    0.855863952680287  0.0000
  Ge     Ge        0.044881553293508    0.023735507702332    0.864678826322345  0.0000
  Ge     Ge        0.168375645031102    0.288278887580919    0.249668415137680  0.0000
  Ge     Ge        0.335199375385611    0.728110606494114    0.251069942135682  0.0000
  Ge     Ge        0.831355398586624    0.301801817385476    0.684973011684013  0.0000
  Ge     Ge        0.668426958945230    0.762230649245506    0.677997570788815  0.0000
  Ge     Ge        0.849295159724459    0.706033149360064    0.683951346012313  0.0000
  Ge     Ge        0.650219374659545    0.356031172311000    0.677795498684274  0.0000
  Ge     Ge        0.152248386327754    0.692306970891136    0.264609763015590  0.0000
  Ge     Ge        0.643476259859123    0.355430063682187    0.994834464178717  0.0000
  Ge     Ge        0.848923165689231    0.695502469324338    0.000757795784758  0.0000
  Ge     Ge        0.344211019308733    0.347890410341124    0.928116545496715  0.0000
  Ge     Ge        0.147971119889879    0.710070352654951    0.945580498985648  0.0000
  Ge     Ge        0.327771830032677    0.753470468216713    0.934344944462494  0.0000
  Ge     Ge        0.165347970916730    0.302124113220350    0.932593943083036  0.0000
  Ge     Ge        0.668659024038227    0.761580070029763    0.994688819977392  0.0000
  Ge     Ge        0.823808532222354    0.292696861361872    0.001907035447732  0.0000
  Si     Si        0.442907039318155    0.023135031324534    0.354940847937069  0.0000
  Si     Si        0.944678095366077    0.018109517309609    0.613164289899450  0.0000
  Si     Si        0.346825868317729    0.330954061562812    0.238467497689086  0.0000
  O1     O1        0.124842547795774    0.137081380177646    0.341961100523934  0.0000
  O3     O3        0.389107519344905    0.861965266846486    0.344175919487579  0.0000
  O3     O3        0.882476202018097    0.164265674441155    0.588176606182110  0.0000
  O1     O1        0.618467890220211    0.895113895298442    0.575791511321495  0.0000
  O3     O3        0.908891037278627    0.833705748942151    0.591417118766531  0.0000
  O1     O1        0.590924776585182    0.242735924882152    0.580239616786338  0.0000
  O1     O1        0.090344612944036    0.801153778598784    0.360380302897458  0.0000
  O2     O2        0.401790038835843    0.199062019351423    0.313664371525325  0.0000
  O3     O3        0.019874158521695    0.037605224942857    0.529493157995209  0.0000
  O3     O3        0.469120686750500    0.031867647318133    0.504618638577590  0.0000
  O1     O1        0.973860023343315    0.027412369421960    0.277377140304916  0.0000
  O3     O3        0.519409661666110    0.007413599615710    0.272564150444635  0.0000
  O3     O3        0.967536161744864    0.037012058695629    0.765260593961132  0.0000
  O1     O1        0.521133061248578    0.015042974943995    0.755229291518821  0.0000
  O1     O1        0.579392517228533    0.244593619997465    0.086054400114895  0.0000
  O1     O1        0.912508280158060    0.803991899612760    0.092008336820365  0.0000
  O1     O1        0.408504295696504    0.236261560671270    0.840821631044318  0.0000
  O1     O1        0.085481073768246    0.826380035162085    0.854251559877649  0.0000
  O1     O1        0.375931444520828    0.889335367897621    0.834858982903974  0.0000
  O1     O1        0.112151056623157    0.175945718478053    0.835698971667098  0.0000
  O1     O1        0.625160075218616    0.905095290057219    0.091814079661358  0.0000
  O1     O1        0.866151296433262    0.144398660197750    0.100377340142392  0.0000
  O1     O1        0.476919877738768    0.993370558355281    0.013068422756096  0.0000
  O1     O1        0.014320420404251    0.060484834123766    0.020743932430697  0.0000
  O1     O1        0.154022364754195    0.484399655538335    0.315525376533147  0.0000
  O3     O3        0.346862059689101    0.516225788506282    0.301881279498671  0.0000
  O1     O1        0.843870315400075    0.505327952385982    0.623664970922552  0.0000
  O1     O1        0.659411408645879    0.559001278535908    0.620646454064953  0.0000
  O3     O3        0.264241735142875    0.250477194535419    0.241554659888622  0.0000
  O1     O1        0.241665139287855    0.775218358567325    0.269720902371932  0.0000
  O1     O1        0.737111356982440    0.256888561612096    0.680525296542371  0.0000
  O1     O1        0.762888035477716    0.805399232022643    0.681481949547648  0.0000
  O1     O1        0.135589208638996    0.285969765094932    0.092612274635213  0.0000
  O1     O1        0.362009048230131    0.751078066009706    0.092282846672005  0.0000
  O1     O1        0.859352573889568    0.290652646377261    0.845570053898922  0.0000
  O1     O1        0.636301683784593    0.774210396589694    0.836358980052203  0.0000
  O1     O1        0.880837724829876    0.688089493849256    0.842082196950964  0.0000
  O1     O1        0.614561387153791    0.359827067252907    0.834067923428305  0.0000
  O1     O1        0.119414111404932    0.705490702823893    0.106369898263036  0.0000
  O3     O3        0.374317134560223    0.350798861597125    0.090060121858534  0.0000
  O1     O1        0.652590440210316    0.557214779609888    0.051183415937432  0.0000
  O1     O1        0.838404369341675    0.493538527689318    0.061606698680323  0.0000
  O1     O1        0.336182140816967    0.551760387499612    0.872367569775882  0.0000
  O1     O1        0.155883472856774    0.511199869576006    0.883844369097673  0.0000
  O1     O1        0.729310588469109    0.253595623958027    0.997757218508261  0.0000
  O1     O1        0.763530105887865    0.798804752273882    0.997085985648201  0.0000
  O1     O1        0.258643132585259    0.248053995205455    0.922437334362954  0.0000
  O1     O1        0.234466680330324    0.807202882418529    0.942766410343538  0.0000
