data_c00240.vasp
_audit_creation_method             Generated by GULP
_audit_author_name                 Salvador R. G. Balestra
_symmetry_space_group_name_H-M     'P 1             '
_symmetry_Int_Tables_number        1

loop_
_symmetry_equiv_pos_site_id
_symmetry_equiv_pos_as_xyz
_cell_length_a                       17.5853
_cell_length_b                        7.8460
_cell_length_c                       10.2738
_cell_angle_alpha                   90.3251
_cell_angle_beta                    89.9132
_cell_angle_gamma                   91.3154

loop_
_atom_site_label
_atom_site_type_symbol
_atom_site_fract_x
_atom_site_fract_y
_atom_site_fract_z
_atom_site_charge
  Ge     Ge        0.052090000000021    0.000000000000000    0.372269999999958  0.0000
  Ge     Ge        0.452568079014709    0.051610525522762    0.408217394090147  0.0000
  Ge     Ge        0.946112779722251    0.052395633918649    0.623022487448482  0.0000
  Ge     Ge        0.949113684769662    0.069737655661247    0.118511753931089  0.0000
  Ge     Ge        0.454013932707070    0.062134385848399    0.912891013624309  0.0000
  Ge     Ge        0.055072157276379    0.002604650423152    0.868302152181267  0.0000
  Ge     Ge        0.177321348503569    0.282022799077299    0.299056521986027  0.0000
  Ge     Ge        0.329664180515085    0.767203071042545    0.302415383681069  0.0000
  Ge     Ge        0.849305462808528    0.362724262730695    0.745278815157321  0.0000
  Ge     Ge        0.644802337173462    0.692249902288928    0.735871617207938  0.0000
  Ge     Ge        0.825823431152925    0.765045547355541    0.734489533613085  0.0000
  Ge     Ge        0.667533242640564    0.287802442005240    0.742726675940792  0.0000
  Ge     Ge        0.149111201779907    0.683115155052902    0.306036634620114  0.0000
  Ge     Ge        0.358402698172754    0.365921816112500    0.296632080131915  0.0000
  Ge     Ge        0.665408219037643    0.310798388606350    0.058555498149793  0.0000
  Ge     Ge        0.826299712433271    0.778831534042909    0.047994202093965  0.0000
  Ge     Ge        0.356521613283404    0.376356579824524    0.980428447213167  0.0000
  Ge     Ge        0.148108286185203    0.691094520330245    0.989127758928660  0.0000
  Ge     Ge        0.328711148070300    0.776800424499223    0.986378323604439  0.0000
  Ge     Ge        0.176405244036629    0.288041525771432    0.983199550364609  0.0000
  Ge     Ge        0.848127126333814    0.381589071824783    0.064691865593598  0.0000
  Si     Si        0.553339551447649    0.002026743258158    0.660283426683558  0.0000
  Si     Si        0.556186487195493    0.012540154402631    0.162501624746482  0.0000
  Si     Si        0.646494503788688    0.706771771541285    0.042125857015679  0.0000
  O1     O1        0.127859671328127    0.139957809339536    0.393801768800376  0.0000
  O1     O1        0.375956275018658    0.915332362691901    0.397669344219895  0.0000
  O1     O1        0.917266663848146    0.253221578423654    0.662960418472387  0.0000
  O3     O3        0.582584909174550    0.810476504344781    0.643921067437491  0.0000
  O1     O1        0.872156408033758    0.908694864971810    0.637048962410036  0.0000
  O3     O3        0.621643109358467    0.140422434167577    0.643065424282035  0.0000
  O1     O1        0.083861269643660    0.796739710840303    0.393579151786525  0.0000
  O1     O1        0.425741527507685    0.256034836346450    0.380148542506767  0.0000
  O1     O1        0.974663988136243    0.049645163650530    0.462310094403052  0.0000
  O3     O3        0.483731015292940    0.040020093464277    0.567970080882710  0.0000
  O1     O1        0.024416755076588    0.017395262147228    0.210643267863483  0.0000
  O3     O3        0.527182410817481    0.991963765684234    0.309361416238608  0.0000
  O1     O1        0.025421669193108    0.998091787358836    0.708952146433896  0.0000
  O3     O3        0.527779835529182    0.020771426522752    0.811112613863303  0.0000
  O3     O3        0.617743372328785    0.167124669051422    0.157084364053407  0.0000
  O1     O1        0.871640993716899    0.931877438538770    0.137347612570971  0.0000
  O1     O1        0.420964965150902    0.264345428155567    0.891274183567219  0.0000
  O1     O1        0.079967209965857    0.798462029371504    0.907154990795705  0.0000
  O1     O1        0.378950707799622    0.920219259616905    0.894283379320311  0.0000
  O1     O1        0.131497419488275    0.140741971407512    0.885595409694012  0.0000
  O2     O2        0.590525280781402    0.831191281006137    0.119494475122861  0.0000
  O1     O1        0.913749632705835    0.269111285007238    0.149097984381075  0.0000
  O3     O3        0.484340372107966    0.053874630605694    0.073587581520734  0.0000
  O1     O1        0.978752133704264    0.067101341118198    0.958362849208505  0.0000
  O1     O1        0.162026319422140    0.482984999768386    0.363588365181595  0.0000
  O1     O1        0.344885016951505    0.565087477622041    0.360829557237409  0.0000
  O1     O1        0.838491447369180    0.560481073920368    0.678408486473085  0.0000
  O1     O1        0.652046862766765    0.488534688205093    0.679920483499295  0.0000
  O1     O1        0.273450504582970    0.250305606945642    0.299254656089806  0.0000
  O1     O1        0.233538871636547    0.799276691819996    0.305251340406591  0.0000
  O1     O1        0.763262574590317    0.252084566751583    0.742008443421907  0.0000
  O1     O1        0.730162701900984    0.801120664582488    0.732773254217937  0.0000
  O1     O1        0.144172212520320    0.269740815635840    0.141108545936784  0.0000
  O1     O1        0.360677832213092    0.786611057797848    0.144459415092486  0.0000
  O1     O1        0.875398940751627    0.394243098319120    0.903838014257152  0.0000
  O3     O3        0.615197074925617    0.676209028316979    0.897072337161164  0.0000
  O1     O1        0.860258584453504    0.788016543013151    0.890605670753090  0.0000
  O1     O1        0.635356206787532    0.280938888942229    0.901305452551375  0.0000
  O1     O1        0.119278876310319    0.664226061534981    0.147210852851491  0.0000
  O1     O1        0.386981941746849    0.395375264116387    0.139064536964240  0.0000
  O3     O3        0.651275483538392    0.521772762964952    0.107839972581020  0.0000
  O1     O1        0.843018303172964    0.585936722567674    0.120489393577850  0.0000
  O1     O1        0.342744404947801    0.575588064532573    0.921783254104679  0.0000
  O1     O1        0.160630753384584    0.490839629226138    0.926067153758342  0.0000
  O1     O1        0.760762235304700    0.277435386963102    0.069719251362316  0.0000
  O3     O3        0.728788308130938    0.799830268124316    0.036579586232447  0.0000
  O1     O1        0.272519593341139    0.258282926457396    0.983414540500971  0.0000
  O1     O1        0.232456327523470    0.808369340567535    0.984824072143775  0.0000
