data_c00212.vasp
_audit_creation_method             Generated by GULP
_audit_author_name                 Salvador R. G. Balestra
_symmetry_space_group_name_H-M     'P 1             '
_symmetry_Int_Tables_number        1

loop_
_symmetry_equiv_pos_site_id
_symmetry_equiv_pos_as_xyz
_cell_length_a                       17.5731
_cell_length_b                        7.8343
_cell_length_c                       10.2763
_cell_angle_alpha                   89.5054
_cell_angle_beta                    90.7338
_cell_angle_gamma                   91.4231

loop_
_atom_site_label
_atom_site_type_symbol
_atom_site_fract_x
_atom_site_fract_y
_atom_site_fract_z
_atom_site_charge
  Ge     Ge        0.052090000000021    0.000000000000000    0.372269999999958  0.0000
  Ge     Ge        0.448017077749898    0.052736432794576    0.339649842552393  0.0000
  Ge     Ge        0.948124550432789    0.050008415840023    0.626180011088931  0.0000
  Ge     Ge        0.548933650184602    0.979424779470573    0.083420543284040  0.0000
  Ge     Ge        0.943879978180608    0.044634490464406    0.120918122604309  0.0000
  Ge     Ge        0.443939349537732    0.046232594957624    0.826077809604482  0.0000
  Ge     Ge        0.173066267414363    0.285314610070108    0.262630975365746  0.0000
  Ge     Ge        0.324474565365893    0.772283780583346    0.254687865467885  0.0000
  Ge     Ge        0.847711154012643    0.362513798549718    0.690751999779417  0.0000
  Ge     Ge        0.641478244384127    0.686171475310943    0.703667038795277  0.0000
  Ge     Ge        0.823681862473313    0.765003237608270    0.698576400807654  0.0000
  Ge     Ge        0.666943899799491    0.283385248379942    0.694116988244757  0.0000
  Ge     Ge        0.143645663007431    0.685266957065704    0.255585859089879  0.0000
  Ge     Ge        0.353798194472743    0.368941564634092    0.260706553005468  0.0000
  Ge     Ge        0.672682133994662    0.268050516150597    0.010547646938922  0.0000
  Ge     Ge        0.827106115438572    0.747144039094559    0.013112390559883  0.0000
  Ge     Ge        0.349331620308861    0.356129846999989    0.945085595589846  0.0000
  Ge     Ge        0.141802846823037    0.677039344535055    0.940387511065451  0.0000
  Ge     Ge        0.323112968958633    0.761594177918602    0.939524188537123  0.0000
  Ge     Ge        0.166822501824041    0.276605574640286    0.947474116910591  0.0000
  Ge     Ge        0.646166709140911    0.666322853752534    0.020873660019211  0.0000
  Si     Si        0.549867151718364    0.996480783214468    0.586766854710292  0.0000
  Si     Si        0.047467352203199    0.988906661440400    0.878858338620336  0.0000
  Si     Si        0.849390231102112    0.350866673479244    0.001399565743532  0.0000
  O1     O1        0.129316475100039    0.135626774005524    0.359256236707441  0.0000
  O1     O1        0.371684642283907    0.913158066868517    0.354637190654948  0.0000
  O1     O1        0.914771936250306    0.253406034134021    0.608437524332338  0.0000
  O3     O3        0.573589047235267    0.805549143911137    0.623811336377409  0.0000
  O1     O1        0.872406376988126    0.909689844426738    0.604207159102716  0.0000
  O3     O3        0.619792652321334    0.129184094968554    0.603620988484729  0.0000
  O1     O1        0.076629149217906    0.794859355516044    0.337681537835778  0.0000
  O1     O1        0.417948774826509    0.257682031065536    0.354352499607495  0.0000
  O1     O1        0.023116897523008    0.007642100677129    0.531633875320622  0.0000
  O3     O3        0.524665730663732    0.001534672956136    0.435576198068833  0.0000
  O1     O1        0.975999145346808    0.062128172389304    0.278431261341963  0.0000
  O1     O1        0.476233567585966    0.030631036435241    0.179745908299865  0.0000
  O3     O3        0.976206893433191    0.029821674279314    0.788869633167637  0.0000
  O3     O3        0.476389775327079    0.050651227426635    0.667136399542803  0.0000
  O1     O1        0.626839250834629    0.117125929657575    0.101205422099666  0.0000
  O1     O1        0.875449793534441    0.885380823751267    0.113958500216143  0.0000
  O1     O1        0.414963371563466    0.249139918892409    0.858410982892733  0.0000
  O3     O3        0.077858704640723    0.799683035657301    0.852995110189442  0.0000
  O1     O1        0.367606538149016    0.906622896146701    0.839626693193405  0.0000
  O3     O3        0.116297560789453    0.126367319053362    0.857672720573284  0.0000
  O1     O1        0.581894306693048    0.776603409066472    0.108884969609028  0.0000
  O3     O3        0.912157588686901    0.244835302044793    0.078136985805852  0.0000
  O1     O1        0.518189159630350    0.987538089507273    0.923283341397317  0.0000
  O3     O3        0.021892080216252    0.994565798439583    0.029320224419511  0.0000
  O1     O1        0.158484975751273    0.487167619113454    0.322169039908262  0.0000
  O1     O1        0.340977488901438    0.569649590413636    0.315971136246830  0.0000
  O1     O1        0.837751268874579    0.565306094620997    0.634005170694086  0.0000
  O1     O1        0.649729470925914    0.486688058796940    0.636949263991166  0.0000
  O1     O1        0.268972330744621    0.253228100587116    0.259420493069905  0.0000
  O1     O1        0.228228026710089    0.802606608462095    0.254444663249568  0.0000
  O1     O1        0.762619293214722    0.249748489973739    0.683096979106906  0.0000
  O1     O1        0.727397189230695    0.796021285912251    0.698639601968232  0.0000
  O1     O1        0.137541314149290    0.268835821599874    0.106234390876583  0.0000
  O1     O1        0.357048956890662    0.785120931868534    0.096874552454247  0.0000
  O3     O3        0.874147287245788    0.382004530041815    0.853382932434453  0.0000
  O1     O1        0.615274145152925    0.651620449996114    0.861098650539679  0.0000
  O1     O1        0.857137395878230    0.778792213200489    0.856682699100135  0.0000
  O1     O1        0.638498292415148    0.263033920569391    0.852674389987727  0.0000
  O1     O1        0.113472846761730    0.651101276526615    0.098614737866265  0.0000
  O1     O1        0.383085027983735    0.378794124117955    0.101737593971151  0.0000
  O1     O1        0.656028797091878    0.463797211960266    0.078894346758171  0.0000
  O3     O3        0.839198494118501    0.535998942890017    0.063833756780739  0.0000
  O1     O1        0.337151438646295    0.557949397477191    0.884093664713816  0.0000
  O1     O1        0.150743407787909    0.476299803810663    0.879818274549318  0.0000
  O3     O3        0.770168841019574    0.241409138823242    0.004752455355560  0.0000
  O1     O1        0.731341436730240    0.780124021451171    0.019725431910504  0.0000
  O1     O1        0.263159358455009    0.245045040056250    0.943965528476078  0.0000
  O1     O1        0.226925393582287    0.790088490243234    0.941595670383249  0.0000
