data_c00239.vasp
_audit_creation_method             Generated by GULP
_audit_author_name                 Salvador R. G. Balestra
_symmetry_space_group_name_H-M     'P 1             '
_symmetry_Int_Tables_number        1

loop_
_symmetry_equiv_pos_site_id
_symmetry_equiv_pos_as_xyz
_cell_length_a                       17.5855
_cell_length_b                        7.8353
_cell_length_c                       10.2708
_cell_angle_alpha                   89.6295
_cell_angle_beta                    90.0655
_cell_angle_gamma                   91.3771

loop_
_atom_site_label
_atom_site_type_symbol
_atom_site_fract_x
_atom_site_fract_y
_atom_site_fract_z
_atom_site_charge
  Ge     Ge        0.052090000000021    0.000000000000000    0.372269999999958  0.0000
  Ge     Ge        0.452458351528628    0.051885937221596    0.337698929744164  0.0000
  Ge     Ge        0.947605946664181    0.052027134029185    0.624847416706035  0.0000
  Ge     Ge        0.940806273999776    0.041802481088507    0.129229921433290  0.0000
  Ge     Ge        0.450414815882155    0.051643806813803    0.832803582977441  0.0000
  Ge     Ge        0.049305277321509    0.989624070096092    0.880897729062468  0.0000
  Ge     Ge        0.175425277063399    0.285456549211804    0.262380588890174  0.0000
  Ge     Ge        0.327346853613405    0.771166527794213    0.259509814023784  0.0000
  Ge     Ge        0.848729688353892    0.362849585604021    0.695217550967824  0.0000
  Ge     Ge        0.643013276075919    0.687647586708866    0.703761345926456  0.0000
  Ge     Ge        0.824931744542758    0.767024440980230    0.703221085858980  0.0000
  Ge     Ge        0.668191215895196    0.285496382989032    0.693744753728213  0.0000
  Ge     Ge        0.146539965806929    0.686513999645358    0.256752183359890  0.0000
  Ge     Ge        0.356316452037455    0.369082915874532    0.264317659306925  0.0000
  Ge     Ge        0.666860851691453    0.273792348611617    0.009494777372932  0.0000
  Ge     Ge        0.825807866282579    0.744605861610124    0.016854505074734  0.0000
  Ge     Ge        0.356351322014349    0.362610464541551    0.948013289787419  0.0000
  Ge     Ge        0.148691447728783    0.675814125380538    0.939098193584351  0.0000
  Ge     Ge        0.328172830638534    0.766630772264334    0.942785832031899  0.0000
  Ge     Ge        0.175879505323600    0.275432195176970    0.946478966323852  0.0000
  Ge     Ge        0.643503793774240    0.672752032213195    0.019233590225531  0.0000
  Si     Si        0.553765364760909    0.998867159528716    0.586326991026662  0.0000
  Si     Si        0.550648669898522    0.983551620470965    0.084199366577931  0.0000
  Si     Si        0.845476606079913    0.346596324376330    0.005272191678120  0.0000
  O1     O1        0.128684207427234    0.136602525989314    0.356557465276987  0.0000
  O1     O1        0.376083947112333    0.913738413472410    0.355433131076000  0.0000
  O1     O1        0.914617733315023    0.255738414780178    0.607168077415476  0.0000
  O3     O3        0.577097920208004    0.807304963305569    0.621512259422928  0.0000
  O1     O1        0.872533439816112    0.909195089733988    0.605000294945127  0.0000
  O3     O3        0.624026349253687    0.130917204920783    0.600359149192550  0.0000
  O1     O1        0.077604235567513    0.795646126172687    0.336505644292136  0.0000
  O1     O1        0.421547308155427    0.256010376288769    0.352823415011536  0.0000
  O1     O1        0.024592025177203    0.007790779568701    0.533685314203322  0.0000
  O3     O3        0.527153708387689    0.003759763824694    0.436808304806763  0.0000
  O1     O1        0.972653403451065    0.058987625008046    0.287079106915738  0.0000
  O3     O3        0.482129851866190    0.027700079008471    0.176848393539039  0.0000
  O1     O1        0.973486015408948    0.034029374131600    0.786888440195376  0.0000
  O3     O3        0.483041727859560    0.054396874700032    0.674084897562214  0.0000
  O3     O3        0.621013871825368    0.118513912781602    0.100927320075388  0.0000
  O1     O1        0.873394131339945    0.880092725544875    0.119608184377858  0.0000
  O1     O1        0.423748046659308    0.256352167719453    0.863110589231657  0.0000
  O1     O1        0.082563961461702    0.787599487690255    0.853981256985792  0.0000
  O1     O1        0.374118045254228    0.912907614891383    0.844985890119111  0.0000
  O1     O1        0.124682999696634    0.131539369682786    0.856865861390781  0.0000
  O3     O3        0.581069490457109    0.793671887915631    0.108568737056035  0.0000
  O3     O3        0.905323159626560    0.238428762659223    0.085787109223625  0.0000
  O3     O3        0.523193782914165    0.990718002900111    0.934059256519329  0.0000
  O1     O1        0.020283525150259    0.997427522018383    0.041265786456950  0.0000
  O1     O1        0.159587632063370    0.486952344431598    0.321894011772428  0.0000
  O1     O1        0.342896151095528    0.569151419605565    0.321986392552894  0.0000
  O1     O1        0.839293291326003    0.566011708330105    0.640589967922278  0.0000
  O1     O1        0.652683172609153    0.489217802236475    0.636109752338109  0.0000
  O1     O1        0.271559368833214    0.253560586775163    0.263967275170983  0.0000
  O1     O1        0.231168222135483    0.803048698756555    0.261942715689972  0.0000
  O1     O1        0.763675087534388    0.250441506351014    0.688141766870713  0.0000
  O1     O1        0.728791217184866    0.797765378776738    0.705340460421608  0.0000
  O1     O1        0.143564811069049    0.266655039310540    0.104731057680849  0.0000
  O1     O1        0.359100842203869    0.785117450164894    0.101085462923433  0.0000
  O3     O3        0.874751442877218    0.373259914451092    0.858412962258874  0.0000
  O1     O1        0.613538265805191    0.652970935352121    0.860508951218490  0.0000
  O1     O1        0.858641506992958    0.778268956199579    0.861183469279577  0.0000
  O1     O1        0.635522289610777    0.267882808109637    0.851029287570327  0.0000
  O1     O1        0.119859552000294    0.653974643320934    0.098637165441916  0.0000
  O1     O1        0.386565811655391    0.386333438067682    0.105738984371076  0.0000
  O1     O1        0.649090567931940    0.468967186413659    0.078498452995686  0.0000
  O3     O3        0.836482072692825    0.533272474369678    0.066356200406293  0.0000
  O1     O1        0.343117135386648    0.563001876757812    0.886192856451544  0.0000
  O1     O1        0.162145108222472    0.476417075373871    0.880133201829528  0.0000
  O3     O3        0.764266130622668    0.245435666631383    0.005790841437184  0.0000
  O1     O1        0.730083085209816    0.778729095812734    0.019514832259685  0.0000
  O1     O1        0.272148468539440    0.244219647698587    0.945772172696394  0.0000
  O1     O1        0.232067643997659    0.796607614681716    0.940136402415554  0.0000
