data_c00217.vasp
_audit_creation_method             Generated by GULP
_audit_author_name                 Salvador R. G. Balestra
_symmetry_space_group_name_H-M     'P 1             '
_symmetry_Int_Tables_number        1

loop_
_symmetry_equiv_pos_site_id
_symmetry_equiv_pos_as_xyz
_cell_length_a                       17.7493
_cell_length_b                        7.8891
_cell_length_c                       10.3555
_cell_angle_alpha                   90.7319
_cell_angle_beta                    90.7375
_cell_angle_gamma                   89.6698

loop_
_atom_site_label
_atom_site_type_symbol
_atom_site_fract_x
_atom_site_fract_y
_atom_site_fract_z
_atom_site_charge
  Ge     Ge        0.052090000000021    0.000000000000000    0.372269999999958  0.0000
  Ge     Ge        0.443926028860243    0.026090005294901    0.373006076676921  0.0000
  Ge     Ge        0.945121176315284    0.981218769576306    0.622473065195631  0.0000
  Ge     Ge        0.550286597096584    0.017035827424000    0.122402580134388  0.0000
  Ge     Ge        0.941024287410113    0.982896484779698    0.124267488536453  0.0000
  Ge     Ge        0.442683304570525    0.002591943767609    0.869050298448486  0.0000
  Ge     Ge        0.163565267938969    0.294066840508220    0.263811473886858  0.0000
  Ge     Ge        0.325775585162688    0.740003064614558    0.252343553375309  0.0000
  Ge     Ge        0.824098298225282    0.267528118559838    0.692056850058620  0.0000
  Ge     Ge        0.660652210863695    0.725014931466776    0.694887443818462  0.0000
  Ge     Ge        0.842302258257922    0.671312061710224    0.694011455107424  0.0000
  Ge     Ge        0.642682606089838    0.321155194005699    0.693067495219560  0.0000
  Ge     Ge        0.345179952139542    0.335564422144231    0.264292722652093  0.0000
  Ge     Ge        0.642272184232710    0.330261295185921    0.006807010009662  0.0000
  Ge     Ge        0.848009090831981    0.667344671086675    0.008071614730169  0.0000
  Ge     Ge        0.339474840481587    0.315990410764972    0.949216146429031  0.0000
  Ge     Ge        0.142925254071985    0.682502874633495    0.946603881374990  0.0000
  Ge     Ge        0.323642795739424    0.722270137186646    0.938615157944956  0.0000
  Ge     Ge        0.157311241039726    0.275940838899733    0.951531485867957  0.0000
  Ge     Ge        0.667659056102639    0.732416835264843    0.008126063608540  0.0000
  Ge     Ge        0.822638484972481    0.264091043831244    0.005478341341568  0.0000
  Si     Si        0.545858629411585    0.009409391755184    0.622240314106454  0.0000
  Si     Si        0.043234057209813    0.993064261918033    0.878784909604925  0.0000
  Si     Si        0.148768796732418    0.692024154231239    0.253156490812391  0.0000
  O1     O1        0.113107800303564    0.166149150870225    0.362175687237854  0.0000
  O1     O1        0.370026007038329    0.891564022703073    0.342493233277040  0.0000
  O1     O1        0.876485585448614    0.132980397189858    0.598206547004194  0.0000
  O3     O3        0.609051415420931    0.864975176476251    0.600878949113984  0.0000
  O1     O1        0.903139648276603    0.787260641041160    0.603871484625346  0.0000
  O3     O3        0.581934631215629    0.193773384838177    0.602731325762052  0.0000
  O3     O3        0.093286966939659    0.806198902462153    0.337584756455065  0.0000
  O1     O1        0.409678738858404    0.228112725245212    0.356569198729222  0.0000
  O1     O1        0.022513397312745    0.999092670129481    0.529619954269161  0.0000
  O3     O3        0.473663136571890    0.988791273664789    0.530370630021340  0.0000
  O1     O1        0.972246703695571    0.019669435553690    0.279072912685295  0.0000
  O1     O1        0.520366407520526    0.992706401974728    0.277806094509513  0.0000
  O3     O3        0.973242263312101    0.010479845098038    0.783228930047807  0.0000
  O3     O3        0.518979103802796    0.989820937650919    0.769779012396457  0.0000
  O1     O1        0.578183744224307    0.221759733137306    0.094946305971220  0.0000
  O1     O1        0.911785130034605    0.777745978411787    0.100779042614227  0.0000
  O1     O1        0.399275756957105    0.196740606045810    0.857134664184476  0.0000
  O3     O3        0.079011683700373    0.805368646039499    0.862635616255032  0.0000
  O1     O1        0.375408031362390    0.849201008564712    0.841931674251777  0.0000
  O3     O3        0.107098813242146    0.134068306734419    0.856406711901591  0.0000
  O1     O1        0.625137840754269    0.881839876554136    0.102336861359147  0.0000
  O1     O1        0.866302908962413    0.117145792674991    0.099380385143951  0.0000
  O1     O1        0.475593289394683    0.968054803670219    0.023197169809077  0.0000
  O3     O3        0.015823316734158    0.025233379557509    0.024796722441593  0.0000
  O3     O3        0.156521749639166    0.505824255465916    0.312426667355752  0.0000
  O1     O1        0.341934473031402    0.542546711188559    0.315393720730662  0.0000
  O1     O1        0.833322806669203    0.469916460423614    0.633911518385191  0.0000
  O1     O1        0.647864887609216    0.522217358770495    0.633684241995669  0.0000
  O1     O1        0.257471444927310    0.244289171571215    0.271780687839542  0.0000
  O3     O3        0.229843487668126    0.781755883958558    0.249053874993649  0.0000
  O1     O1        0.729439346721234    0.223099142417099    0.690608023699090  0.0000
  O1     O1        0.755070825543700    0.769833878734513    0.692782775570727  0.0000
  O1     O1        0.129134254403508    0.271113918633761    0.109657261560759  0.0000
  O1     O1        0.355845825711762    0.739355715485828    0.095957107668716  0.0000
  O1     O1        0.854825573940326    0.257327824689612    0.850008237102732  0.0000
  O1     O1        0.632262932699547    0.734910711994824    0.852721284469604  0.0000
  O1     O1        0.876358941125910    0.660650369842122    0.849949837954547  0.0000
  O1     O1        0.611183548348085    0.337869483005166    0.848723091508569  0.0000
  O3     O3        0.116751314455985    0.676560483206015    0.107421513626421  0.0000
  O1     O1        0.373286480253438    0.323278504359761    0.105708969058373  0.0000
  O1     O1        0.652537930986945    0.531789028616894    0.067140283386947  0.0000
  O1     O1        0.838601083894134    0.466357823108888    0.065335499139241  0.0000
  O1     O1        0.332010950009696    0.514996773507778    0.887556331711739  0.0000
  O1     O1        0.144289153425566    0.477413861225173    0.891289223852437  0.0000
  O1     O1        0.727613239855337    0.226467102551139    0.005884719590116  0.0000
  O1     O1        0.762315915233414    0.770534090835655    0.007563943135163  0.0000
  O1     O1        0.251328201980450    0.225716489485421    0.950434827106708  0.0000
  O1     O1        0.229637384845417    0.774129778784893    0.933618072723360  0.0000
