data_c00200.vasp
_audit_creation_method             Generated by GULP
_audit_author_name                 Salvador R. G. Balestra
_symmetry_space_group_name_H-M     'P 1             '
_symmetry_Int_Tables_number        1

loop_
_symmetry_equiv_pos_site_id
_symmetry_equiv_pos_as_xyz
_cell_length_a                       17.8773
_cell_length_b                        7.8576
_cell_length_c                       10.2589
_cell_angle_alpha                   89.9364
_cell_angle_beta                    89.8691
_cell_angle_gamma                   90.1989

loop_
_atom_site_label
_atom_site_type_symbol
_atom_site_fract_x
_atom_site_fract_y
_atom_site_fract_z
_atom_site_charge
  Ge     Ge        0.052090000000021    0.000000000000000    0.372269999999958  0.0000
  Ge     Ge        0.444248418204251    0.035685962867224    0.388249584503213  0.0000
  Ge     Ge        0.942304444975192    0.008106170629077    0.621746141976586  0.0000
  Ge     Ge        0.547727149012510    0.025613051343905    0.129753540807006  0.0000
  Ge     Ge        0.948804935638019    0.011928438834588    0.116742063068999  0.0000
  Ge     Ge        0.445531014711075    0.037117865625797    0.872606148383729  0.0000
  Ge     Ge        0.053913808384132    0.006440358797059    0.866658432870512  0.0000
  Ge     Ge        0.167507948582316    0.292454551360511    0.302704721575380  0.0000
  Ge     Ge        0.326275873371097    0.753992621008331    0.305363181962478  0.0000
  Ge     Ge        0.828668968698612    0.304357431312543    0.732742243076683  0.0000
  Ge     Ge        0.664529925338986    0.749232923166782    0.741133358199720  0.0000
  Ge     Ge        0.648044094090438    0.344488474635601    0.732469640862652  0.0000
  Ge     Ge        0.347095039909620    0.349478830744949    0.308460678901265  0.0000
  Ge     Ge        0.648724123682817    0.339756419585781    0.051246827919111  0.0000
  Ge     Ge        0.845669060978022    0.697826141229450    0.049837943727786  0.0000
  Ge     Ge        0.350768882342731    0.349977375406783    0.990917734065405  0.0000
  Ge     Ge        0.147863904729545    0.693399557858759    0.990025842009080  0.0000
  Ge     Ge        0.325799855994879    0.758381205764239    0.988589844658240  0.0000
  Ge     Ge        0.171629047765552    0.286092827909233    0.987098234146251  0.0000
  Ge     Ge        0.668223341358347    0.746000412041810    0.058996502024822  0.0000
  Ge     Ge        0.827310622467515    0.289603149361996    0.048975708185990  0.0000
  Si     Si        0.551989692964363    0.036750214705111    0.627213225313632  0.0000
  Si     Si        0.840828868277136    0.705350897139196    0.738817166802959  0.0000
  Si     Si        0.150930462344446    0.691514198453875    0.300339651766570  0.0000
  O1     O1        0.115717478629360    0.161043270371599    0.401229161364431  0.0000
  O1     O1        0.372631986842122    0.890486321676734    0.406638496099377  0.0000
  O1     O1        0.883133595876541    0.178011255272961    0.636142626583701  0.0000
  O3     O3        0.617340239782293    0.902899064836211    0.655488523677873  0.0000
  O3     O3        0.897249396404613    0.818296311643255    0.654410592911350  0.0000
  O3     O3        0.584582002966963    0.225744250191019    0.644085132278441  0.0000
  O3     O3        0.094976453677961    0.802930975001915    0.387233580353690  0.0000
  O1     O1        0.407240664183645    0.234738737612713    0.404361986687163  0.0000
  O1     O1        0.972232692058737    0.005860423912573    0.462075844645352  0.0000
  O3     O3        0.523593382900575    0.008850519524253    0.480212758808429  0.0000
  O1     O1        0.024907606338302    0.032437756801152    0.212963344682971  0.0000
  O1     O1        0.472943793941487    0.003744146277898    0.229392727355964  0.0000
  O1     O1        0.024175030075813    0.021424831661437    0.708060041943676  0.0000
  O3     O3        0.477969723871293    0.012336456110038    0.714601642181439  0.0000
  O1     O1        0.586389125942991    0.225643768389387    0.142615568091186  0.0000
  O1     O1        0.911984474693767    0.809833734071588    0.131861031123514  0.0000
  O1     O1        0.415542504674989    0.241517897051020    0.900853272673276  0.0000
  O1     O1        0.081513983176573    0.802419226671002    0.905914425338360  0.0000
  O1     O1        0.371419582922868    0.900267736993661    0.890914757483320  0.0000
  O1     O1        0.127322378873226    0.144730492034382    0.887329063866337  0.0000
  O1     O1        0.617081810760294    0.877578311306845    0.155554826889438  0.0000
  O1     O1        0.877995415404487    0.155958710409210    0.144809619608862  0.0000
  O1     O1        0.518253261677204    0.988432474541474    0.972483775998128  0.0000
  O1     O1        0.977611149434922    0.055146221094504    0.959751748282864  0.0000
  O3     O3        0.158890458498044    0.502286329866713    0.356273910514272  0.0000
  O1     O1        0.340876601205368    0.552409939216759    0.365043104755535  0.0000
  O3     O3        0.835042445693839    0.515653531635711    0.682167742228880  0.0000
  O1     O1        0.649132819795968    0.550635846604627    0.676408624164561  0.0000
  O1     O1        0.261294105078523    0.248349658991955    0.308718000113736  0.0000
  O3     O3        0.230747672421877    0.788586423630020    0.299350503246991  0.0000
  O1     O1        0.735258275352304    0.254641327317122    0.722171855972178  0.0000
  O3     O3        0.759535340772223    0.793559953351664    0.737293299669283  0.0000
  O1     O1        0.138412684105899    0.270985639456505    0.144093205431068  0.0000
  O1     O1        0.357055565488878    0.771415883514705    0.146830744946286  0.0000
  O1     O1        0.858278033466721    0.281590962968881    0.889727703407972  0.0000
  O1     O1        0.636718416470950    0.750500735407319    0.900123005393719  0.0000
  O3     O3        0.870842294027364    0.694986627907217    0.886030243350553  0.0000
  O1     O1        0.618589709242885    0.345898936040369    0.891787718963151  0.0000
  O3     O3        0.121043145247835    0.679596634242142    0.152635103940863  0.0000
  O1     O1        0.380062527209650    0.354235216183103    0.150615527929723  0.0000
  O1     O1        0.658743401577230    0.539375192220926    0.113471553348786  0.0000
  O1     O1        0.838006229468545    0.494823610760255    0.106047360958398  0.0000
  O1     O1        0.340909940725975    0.553427749045275    0.934453061574515  0.0000
  O1     O1        0.157001027447806    0.490842952313236    0.931686550134073  0.0000
  O1     O1        0.734165766160127    0.238638164146632    0.049889767961409  0.0000
  O1     O1        0.761062591495743    0.799905215105503    0.062398063539475  0.0000
  O1     O1        0.265868436980048    0.246513661650239    0.986923542252998  0.0000
  O1     O1        0.231780568389059    0.799426847061385    0.981273531527572  0.0000
