data_c00266.vasp
_audit_creation_method             Generated by GULP
_audit_author_name                 Salvador R. G. Balestra
_symmetry_space_group_name_H-M     'P 1             '
_symmetry_Int_Tables_number        1

loop_
_symmetry_equiv_pos_site_id
_symmetry_equiv_pos_as_xyz
_cell_length_a                       17.5025
_cell_length_b                        7.8442
_cell_length_c                       10.2456
_cell_angle_alpha                   90.0378
_cell_angle_beta                    90.2226
_cell_angle_gamma                   91.7256

loop_
_atom_site_label
_atom_site_type_symbol
_atom_site_fract_x
_atom_site_fract_y
_atom_site_fract_z
_atom_site_charge
  Ge     Ge        0.052090000000021    0.000000000000000    0.372269999999958  0.0000
  Ge     Ge        0.550471361336700    0.000186266923676    0.596612751840915  0.0000
  Ge     Ge        0.546969550597952    0.000103459390189    0.106825330937341  0.0000
  Ge     Ge        0.942353159176698    0.061304785090014    0.120706103055030  0.0000
  Ge     Ge        0.443599042069728    0.059044854386094    0.850704916591140  0.0000
  Ge     Ge        0.172422864799366    0.286101211464990    0.256583062546185  0.0000
  Ge     Ge        0.328118744806770    0.765358390470432    0.245648151842923  0.0000
  Ge     Ge        0.856044759731803    0.367121645404598    0.688715884811026  0.0000
  Ge     Ge        0.648698467322806    0.688235883688423    0.671854803522102  0.0000
  Ge     Ge        0.831097703181713    0.768416006549393    0.687431936669223  0.0000
  Ge     Ge        0.673318239290051    0.286117079573799    0.679549275580853  0.0000
  Ge     Ge        0.144396607507468    0.686431618544696    0.256460564008910  0.0000
  Ge     Ge        0.355628090210236    0.364346872657172    0.239310465346402  0.0000
  Ge     Ge        0.669641252793270    0.285406000419651    0.995599450985398  0.0000
  Ge     Ge        0.821390768899554    0.774541847312315    0.004933965301531  0.0000
  Ge     Ge        0.343877848767354    0.366251483184103    0.922903639809146  0.0000
  Ge     Ge        0.139515966083414    0.687413984364349    0.939855647599580  0.0000
  Ge     Ge        0.321471256861449    0.767758011064756    0.930002306594043  0.0000
  Ge     Ge        0.162099653370555    0.284254227162061    0.941427393299114  0.0000
  Ge     Ge        0.639827511060198    0.687937566739363    0.989653761123545  0.0000
  Ge     Ge        0.851618522865849    0.374772773886374    0.004084237643302  0.0000
  Si     Si        0.445005948705217    0.053539145711924    0.353158746499842  0.0000
  Si     Si        0.949935495879876    0.054523361947303    0.619938697608892  0.0000
  Si     Si        0.043904836398020    0.993599786718972    0.870183332234090  0.0000
  O1     O1        0.130312674865973    0.133157657645046    0.352448175734979  0.0000
  O3     O3        0.372807671092315    0.925506626036753    0.335413108841465  0.0000
  O3     O3        0.919882553927241    0.244326514444082    0.602821822934217  0.0000
  O1     O1        0.585505564598899    0.800135124934060    0.578541580517296  0.0000
  O3     O3        0.881506445100548    0.916889310040468    0.594259564977583  0.0000
  O1     O1        0.625033961095347    0.145443438917739    0.579390880629867  0.0000
  O1     O1        0.079257923462169    0.794975224641208    0.345858917966809  0.0000
  O3     O3        0.423308251869553    0.246168233164095    0.319295377738695  0.0000
  O3     O3        0.022351842296272    0.020069191222425    0.532543104648533  0.0000
  O3     O3        0.471885839252575    0.044299765638252    0.503265621655617  0.0000
  O1     O1        0.976000377556793    0.053192415044905    0.277177338203385  0.0000
  O3     O3        0.516997264479454    0.996891020522052    0.268036628864822  0.0000
  O2     O2        0.973935235691977    0.029953809442903    0.772981744813157  0.0000
  O1     O1        0.519792634444712    0.017644073937303    0.756546710250062  0.0000
  O1     O1        0.625496571069125    0.134829266733479    0.091522068726404  0.0000
  O1     O1        0.864279492821777    0.926059235944009    0.102137134272297  0.0000
  O1     O1        0.404541791768475    0.255657412615286    0.826339087645981  0.0000
  O3     O3        0.075844012132201    0.805612860126542    0.849633522165603  0.0000
  O1     O1        0.370944461827943    0.907290869985975    0.832820806641524  0.0000
  O3     O3        0.111156864368924    0.135413682708677    0.849938645489522  0.0000
  O1     O1        0.570406831571961    0.794372078208743    0.069705637792418  0.0000
  O1     O1        0.917321258379799    0.267809322075426    0.093467053908377  0.0000
  O1     O1        0.473322122311302    0.064813740489307    0.011843917851320  0.0000
  O3     O3        0.015246856033687    0.001315906859624    0.018919321130886  0.0000
  O1     O1        0.157141085467628    0.486459293047697    0.318386460336630  0.0000
  O1     O1        0.348325209330889    0.565546659358012    0.304584267480268  0.0000
  O1     O1        0.847327537072675    0.567251565684155    0.625376286375437  0.0000
  O1     O1        0.661324948913507    0.487176500981571    0.615031315180152  0.0000
  O1     O1        0.268790060403591    0.257134260653187    0.248003402840736  0.0000
  O1     O1        0.231623367485206    0.794193114100041    0.253149335099860  0.0000
  O1     O1        0.769722629788504    0.255411899998286    0.686589581382713  0.0000
  O1     O1        0.734779923002214    0.801395342211217    0.676697493146333  0.0000
  O1     O1        0.133814351420257    0.272562600704308    0.101787721064610  0.0000
  O1     O1        0.358048560329133    0.780447159217025    0.086558906066315  0.0000
  O1     O1        0.885133110854176    0.394653331625629    0.847172703868774  0.0000
  O1     O1        0.614358076320193    0.668588546042419    0.828256368219590  0.0000
  O1     O1        0.856971406445773    0.781071803633994    0.848865099719212  0.0000
  O1     O1        0.638100983097992    0.269240869457833    0.836243958405183  0.0000
  O1     O1        0.110940397100219    0.666259722014166    0.099207819515716  0.0000
  O1     O1        0.379985933545598    0.390222968197799    0.079096908427433  0.0000
  O1     O1        0.651036276406238    0.487508274102745    0.051826368528791  0.0000
  O1     O1        0.837206403174876    0.573416577696975    0.066534623777339  0.0000
  O1     O1        0.330255438339122    0.566183017874074    0.864596141523516  0.0000
  O1     O1        0.147063211568292    0.485821623644981    0.879270751239045  0.0000
  O1     O1        0.766467395428097    0.259035628642731    0.998807469676541  0.0000
  O1     O1        0.724812771293721    0.803970979481154    0.999559456941037  0.0000
  O1     O1        0.258240837938721    0.251539241485313    0.934087186619565  0.0000
  O1     O1        0.225310055166237    0.800728144664838    0.938741501817976  0.0000
