data_c00219.vasp
_audit_creation_method             Generated by GULP
_audit_author_name                 Salvador R. G. Balestra
_symmetry_space_group_name_H-M     'P 1             '
_symmetry_Int_Tables_number        1

loop_
_symmetry_equiv_pos_site_id
_symmetry_equiv_pos_as_xyz
_cell_length_a                       17.7799
_cell_length_b                        7.8859
_cell_length_c                       10.3627
_cell_angle_alpha                   89.2947
_cell_angle_beta                    90.5653
_cell_angle_gamma                   90.2516

loop_
_atom_site_label
_atom_site_type_symbol
_atom_site_fract_x
_atom_site_fract_y
_atom_site_fract_z
_atom_site_charge
  Ge     Ge        0.052090000000021    0.000000000000000    0.372269999999958  0.0000
  Ge     Ge        0.449442158785777    0.036445864111353    0.369404854841843  0.0000
  Ge     Ge        0.945486637705510    0.016472941572274    0.625288601469770  0.0000
  Ge     Ge        0.554686110097929    0.036513936058285    0.118720566191606  0.0000
  Ge     Ge        0.947038251184822    0.007954737577737    0.116092460845473  0.0000
  Ge     Ge        0.447116418280483    0.038073783191072    0.865695463849700  0.0000
  Ge     Ge        0.170777605439201    0.289212141317925    0.256918028912459  0.0000
  Ge     Ge        0.329492444539722    0.753255560513380    0.254451422260813  0.0000
  Ge     Ge        0.829898835481346    0.309817026322140    0.688137734344686  0.0000
  Ge     Ge        0.665167460436625    0.753998591209171    0.691237317845910  0.0000
  Ge     Ge        0.647708683216017    0.352576499038298    0.688417398297219  0.0000
  Ge     Ge        0.149794715420607    0.693522845698825    0.260456823709813  0.0000
  Ge     Ge        0.350259533756996    0.346245691117337    0.254419382322800  0.0000
  Ge     Ge        0.649100960840487    0.352035668932333    0.002849722201911  0.0000
  Ge     Ge        0.850926819026379    0.697085058843377    0.999738886206254  0.0000
  Ge     Ge        0.345850432300649    0.349725993268053    0.939620018825064  0.0000
  Ge     Ge        0.146064407532681    0.706967144433384    0.947138945719969  0.0000
  Ge     Ge        0.327672597523887    0.755289956502133    0.941268750890949  0.0000
  Ge     Ge        0.164363359906937    0.302932318880216    0.942300195631689  0.0000
  Ge     Ge        0.672684924066636    0.756576684069607    0.004689955294163  0.0000
  Ge     Ge        0.828752698970586    0.291752551564050    0.999881374814632  0.0000
  Si     Si        0.551236691553136    0.040288892056136    0.619888496472071  0.0000
  Si     Si        0.049944608497445    0.020877437705237    0.873850090291205  0.0000
  Si     Si        0.843093474128189    0.705855899264235    0.691623173742608  0.0000
  O1     O1        0.122596874078095    0.145429411047097    0.348138686356881  0.0000
  O1     O1        0.378749919063592    0.891176943718032    0.349091348821169  0.0000
  O1     O1        0.883033822539289    0.178802326673293    0.595640948546637  0.0000
  O3     O3        0.616225179686826    0.901317416716302    0.599632368091485  0.0000
  O3     O3        0.898273898806946    0.824735597805073    0.609246853976255  0.0000
  O3     O3        0.587099174059307    0.226025470729251    0.599346889804522  0.0000
  O1     O1        0.087088302918972    0.800031300176108    0.352983872482511  0.0000
  O1     O1        0.415364317586393    0.236969126424066    0.344198195012064  0.0000
  O1     O1        0.021287900800717    0.023065230898560    0.527700104413635  0.0000
  O3     O3        0.479884854789536    0.014617419794156    0.528474932602363  0.0000
  O1     O1        0.975531795016676    0.030076728393212    0.272942479710939  0.0000
  O1     O1        0.525611974112385    0.004135979591492    0.274168401888439  0.0000
  O3     O3        0.977825626052347    0.039495560276309    0.782879153339293  0.0000
  O3     O3        0.523334377754120    0.017789526065766    0.767113576626461  0.0000
  O1     O1        0.585309866910432    0.241251058140807    0.092717601557676  0.0000
  O1     O1        0.918279181790679    0.804105582498911    0.083831766445802  0.0000
  O1     O1        0.407486198144971    0.235452234117759    0.849796732113379  0.0000
  O3     O3        0.085464144390711    0.834853274092940    0.858305187311705  0.0000
  O1     O1        0.376509381975155    0.890786912237561    0.843312850054279  0.0000
  O3     O3        0.113404644931203    0.163628637945427    0.847722247477360  0.0000
  O1     O1        0.627733866998562    0.899219067469387    0.097349701291771  0.0000
  O1     O1        0.874332219487462    0.146801642815984    0.094721143905915  0.0000
  O1     O1        0.479089757681458    0.998028001792535    0.020071692474889  0.0000
  O3     O3        0.024074189952333    0.051877706751732    0.020714979736691  0.0000
  O1     O1        0.160489923635184    0.490869085912740    0.317363593584252  0.0000
  O1     O1        0.341364262402518    0.547894795721081    0.310268158490329  0.0000
  O3     O3        0.837703433548516    0.518778321760014    0.633141817397339  0.0000
  O1     O1        0.648923833051706    0.556132079860413    0.628678746454566  0.0000
  O1     O1        0.264861606202274    0.242345527943119    0.258632141119376  0.0000
  O1     O1        0.235250608939167    0.797382201678555    0.259091526126178  0.0000
  O1     O1        0.735623313522977    0.263054142204631    0.683061458066214  0.0000
  O3     O3        0.761108895631712    0.793049111211015    0.691591156618005  0.0000
  O1     O1        0.137599687982911    0.294518442469372    0.100961745664702  0.0000
  O1     O1        0.360420178009950    0.764237586097085    0.098247638771838  0.0000
  O1     O1        0.860805870159180    0.284945190676301    0.844458073216539  0.0000
  O1     O1        0.638020513245293    0.761678587887443    0.849181514330769  0.0000
  O3     O3        0.873949504455032    0.688000708812233    0.837595770777349  0.0000
  O1     O1        0.617730716852372    0.361602812990311    0.845052110117207  0.0000
  O1     O1        0.116158179791024    0.693508319120469    0.103853256912886  0.0000
  O1     O1        0.378875199648270    0.350307412608340    0.096308680802963  0.0000
  O1     O1        0.659980593641232    0.552094595097322    0.062072728446946  0.0000
  O1     O1        0.843255004545628    0.493968875701765    0.057436133288526  0.0000
  O1     O1        0.338180863324252    0.552967596111680    0.883268850583569  0.0000
  O1     O1        0.150385589701880    0.507053947892653    0.884998325774768  0.0000
  O1     O1        0.734171157566266    0.249380393688927    0.001242152002772  0.0000
  O1     O1        0.766935972403221    0.802049373646483    0.009315891933722  0.0000
  O1     O1        0.258232797855077    0.255275084602465    0.936512885033222  0.0000
  O1     O1        0.233529773300425    0.800496594006389    0.944701451939239  0.0000
