data_c00227.vasp
_audit_creation_method             Generated by GULP
_audit_author_name                 Salvador R. G. Balestra
_symmetry_space_group_name_H-M     'P 1             '
_symmetry_Int_Tables_number        1

loop_
_symmetry_equiv_pos_site_id
_symmetry_equiv_pos_as_xyz
_cell_length_a                       17.6035
_cell_length_b                        7.8381
_cell_length_c                       10.1627
_cell_angle_alpha                   89.4230
_cell_angle_beta                    89.5174
_cell_angle_gamma                   88.6193

loop_
_atom_site_label
_atom_site_type_symbol
_atom_site_fract_x
_atom_site_fract_y
_atom_site_fract_z
_atom_site_charge
  Ge     Ge        0.052090000000021    0.000000000000000    0.372269999999958  0.0000
  Ge     Ge        0.445366958816957    0.947736214815952    0.350730137337929  0.0000
  Ge     Ge        0.943834170650395    0.957594935163952    0.626298800178469  0.0000
  Ge     Ge        0.547304785090460    0.017093641135291    0.089445381844647  0.0000
  Ge     Ge        0.947042623844400    0.955696767250032    0.122315414697240  0.0000
  Ge     Ge        0.053171324941021    0.017625121376139    0.872272878729869  0.0000
  Ge     Ge        0.145253418169461    0.315194464266042    0.251030450681310  0.0000
  Ge     Ge        0.354691275701912    0.632752186501803    0.266263542439291  0.0000
  Ge     Ge        0.824855212749027    0.253842485479722    0.691832458803671  0.0000
  Ge     Ge        0.667505018711924    0.725390423287327    0.695595459690521  0.0000
  Ge     Ge        0.642024739812713    0.325792784977367    0.697613173500046  0.0000
  Ge     Ge        0.174144295414150    0.716299964650251    0.257753419652778  0.0000
  Ge     Ge        0.325474585271672    0.230631576837669    0.261237257491896  0.0000
  Ge     Ge        0.645675067035195    0.329884386774570    0.017362883133882  0.0000
  Ge     Ge        0.851598267307778    0.647878652956662    0.003051362035272  0.0000
  Ge     Ge        0.333802974079783    0.243873332382858    0.941318596799555  0.0000
  Ge     Ge        0.177426920153356    0.727977137175938    0.940004578282379  0.0000
  Ge     Ge        0.359556190429710    0.649323590607097    0.948592564311630  0.0000
  Ge     Ge        0.153018842454393    0.328282964015647    0.929981630960522  0.0000
  Ge     Ge        0.672693224445366    0.731549232134487    0.016162832685059  0.0000
  Ge     Ge        0.825935282670904    0.244201333600502    0.009578487962814  0.0000
  Si     Si        0.553347383544805    0.014770583893748    0.589052591235349  0.0000
  Si     Si        0.450704869822524    0.960264780103319    0.833443594900984  0.0000
  Si     Si        0.844903554714636    0.646343290979986    0.688153893827466  0.0000
  O1     O1        0.076692413421286    0.205618956767627    0.333945418229062  0.0000
  O1     O1        0.414793082586747    0.743161869075925    0.365975931893596  0.0000
  O1     O1        0.875805763088566    0.113784166410808    0.595700555023557  0.0000
  O3     O3        0.625387434177480    0.888449424990180    0.605713507209784  0.0000
  O3     O3        0.904883913256728    0.757842463594952    0.607357403451301  0.0000
  O3     O3        0.576844754609967    0.207699730141407    0.612802925241165  0.0000
  O1     O1        0.128870256906709    0.864433123659510    0.354057338642389  0.0000
  O1     O1        0.370188306695725    0.089492782833251    0.365979107280567  0.0000
  O1     O1        0.023665388646606    0.986977619006104    0.534565624000746  0.0000
  O3     O3        0.523401141826058    0.996788239489457    0.441439503743166  0.0000
  O1     O1        0.974260521417935    0.942246915233527    0.284004493758397  0.0000
  O1     O1        0.472980959761950    0.971899732757424    0.187488890068831  0.0000
  O1     O1        0.973854484505388    0.971499933417955    0.787252247943101  0.0000
  O2     O2        0.482633859802628    0.961160926584622    0.683140588617101  0.0000
  O1     O1        0.581868617678806    0.218486065751833    0.110098333230843  0.0000
  O1     O1        0.923438511346943    0.753291337961896    0.074189856063122  0.0000
  O3     O3        0.379692271844172    0.091642074157268    0.845892918582678  0.0000
  O1     O1        0.127150205879694    0.873004066726031    0.847842819076451  0.0000
  O3     O3        0.425802641722402    0.768018505275269    0.864036707874063  0.0000
  O1     O1        0.089432806764407    0.216496745348836    0.840598733120034  0.0000
  O1     O1        0.621737389085206    0.872708577779170    0.109542408661489  0.0000
  O1     O1        0.871204887596993    0.095711519075200    0.106846794183344  0.0000
  O3     O3        0.518440555469452    0.015127782559837    0.926026115324037  0.0000
  O1     O1        0.025275880724091    0.020269464025544    0.035842088100859  0.0000
  O1     O1        0.157876706148647    0.513270300497465    0.316945660417963  0.0000
  O1     O1        0.340069568449277    0.431987674775033    0.323498155814465  0.0000
  O3     O3        0.836303322715672    0.459752378591420    0.628435690907210  0.0000
  O1     O1        0.647215231985756    0.529121964904488    0.632784005168866  0.0000
  O1     O1        0.229795936222863    0.198197611821109    0.256449253179944  0.0000
  O1     O1        0.270156374154550    0.747829267699161    0.257321682897481  0.0000
  O1     O1        0.729036885142212    0.221288921199575    0.690753980222767  0.0000
  O3     O3        0.764963968198082    0.750917233534187    0.689541046827740  0.0000
  O1     O1        0.121196962420192    0.348629106093246    0.089959575223048  0.0000
  O1     O1        0.389798536080549    0.622829563605602    0.107611733099440  0.0000
  O1     O1        0.858078893914882    0.227092956790003    0.849549920334133  0.0000
  O1     O1        0.640157524029445    0.741388043177810    0.856670975225594  0.0000
  O3     O3        0.871668158447358    0.617315080514772    0.837859221192808  0.0000
  O1     O1        0.614254534668160    0.351578929876442    0.857578443060499  0.0000
  O1     O1        0.142199267050911    0.736864823667026    0.098622679732806  0.0000
  O1     O1        0.361593259938432    0.223119542106107    0.102624070695239  0.0000
  O1     O1        0.659728785444591    0.527962757992221    0.078341962194296  0.0000
  O1     O1        0.841950589708901    0.446743691194030    0.067310817251204  0.0000
  O1     O1        0.351684446005728    0.448118444542249    0.885339928487627  0.0000
  O1     O1        0.165746202598342    0.529651045445892    0.870963310449997  0.0000
  O1     O1        0.729937576195332    0.213264745971903    0.010610299788282  0.0000
  O1     O1        0.768481361852304    0.766737857504098    0.019405546306998  0.0000
  O1     O1        0.238060819494061    0.213869579901296    0.933320341832317  0.0000
  O1     O1        0.273650390218581    0.758443407834234    0.944664494438590  0.0000
