data_c00248.vasp
_audit_creation_method             Generated by GULP
_audit_author_name                 Salvador R. G. Balestra
_symmetry_space_group_name_H-M     'P 1             '
_symmetry_Int_Tables_number        1

loop_
_symmetry_equiv_pos_site_id
_symmetry_equiv_pos_as_xyz
_cell_length_a                       17.4984
_cell_length_b                        7.8445
_cell_length_c                       10.3168
_cell_angle_alpha                   90.0659
_cell_angle_beta                    89.6807
_cell_angle_gamma                   88.1044

loop_
_atom_site_label
_atom_site_type_symbol
_atom_site_fract_x
_atom_site_fract_y
_atom_site_fract_z
_atom_site_charge
  Ge     Ge        0.052090000000021    0.000000000000000    0.372269999999958  0.0000
  Ge     Ge        0.449768256795723    0.939682086872184    0.414891520857511  0.0000
  Ge     Ge        0.946946667865162    0.940870763005527    0.622878838436291  0.0000
  Ge     Ge        0.953157275999001    0.932554705071775    0.115538733636499  0.0000
  Ge     Ge        0.059598219714140    0.993328607064442    0.863495780754280  0.0000
  Ge     Ge        0.147503216901992    0.314254483799894    0.299612053466200  0.0000
  Ge     Ge        0.358560209165912    0.625988933886323    0.302841537456236  0.0000
  Ge     Ge        0.825243525330982    0.230317132030274    0.738585161361904  0.0000
  Ge     Ge        0.668027897440278    0.709799232126170    0.742103912143521  0.0000
  Ge     Ge        0.851095003714331    0.631092308893572    0.739993415901252  0.0000
  Ge     Ge        0.641721909038506    0.309061308366077    0.742193069299009  0.0000
  Ge     Ge        0.176791423826390    0.715663655722851    0.296170490349750  0.0000
  Ge     Ge        0.328871578391340    0.225959172062741    0.305422150595587  0.0000
  Ge     Ge        0.644050782840594    0.305772040887225    0.054422610598836  0.0000
  Ge     Ge        0.851446906558588    0.623251774987566    0.057666292505914  0.0000
  Ge     Ge        0.337085310346652    0.221024034492490    0.991766763345915  0.0000
  Ge     Ge        0.180212588094342    0.706505480071554    0.981979522178728  0.0000
  Ge     Ge        0.362975069583926    0.621880684962546    0.989152150050884  0.0000
  Ge     Ge        0.153582933688774    0.303245388414467    0.984879716656417  0.0000
  Ge     Ge        0.669578810138833    0.708020251127676    0.058576035447564  0.0000
  Ge     Ge        0.827099354652767    0.223020639043824    0.051184200529666  0.0000
  Si     Si        0.550854383030830    0.995943207939953    0.666232592690845  0.0000
  Si     Si        0.554489548290580    0.997803482301672    0.165765569598237  0.0000
  Si     Si        0.456402060721871    0.931775558355533    0.917737143916609  0.0000
  O1     O1        0.082571238495891    0.204473569704959    0.389845859776954  0.0000
  O1     O1        0.423622990051790    0.734085830069836    0.392098899181416  0.0000
  O1     O1        0.870507472892146    0.079456554539828    0.644007275049334  0.0000
  O3     O3        0.620877105637414    0.860321754538814    0.646864594949849  0.0000
  O1     O1        0.919518003693518    0.737891740882481    0.656598561590419  0.0000
  O3     O3        0.579687279737128    0.186935011315413    0.652816506923817  0.0000
  O1     O1        0.128269591213510    0.858222204915027    0.393627898618846  0.0000
  O1     O1        0.371920059472857    0.075276581493529    0.401820618185458  0.0000
  O1     O1        0.974128304042179    0.953485713084561    0.461979347318216  0.0000
  O3     O3        0.482417571541721    0.960183823008568    0.571439626912736  0.0000
  O1     O1        0.028278457820544    0.977079541578596    0.210167019625514  0.0000
  O3     O3        0.521902020113308    0.993865089771017    0.310099960145916  0.0000
  O1     O1        0.027666388523055    0.993025239916988    0.706101215645609  0.0000
  O2     O2        0.522833348981777    0.969331338145496    0.815476949676371  0.0000
  O3     O3        0.579603077148699    0.189750932174467    0.141750658564284  0.0000
  O1     O1        0.918150749980586    0.732493466742004    0.141440050275135  0.0000
  O3     O3        0.386239487687283    0.067071064969674    0.901874157319581  0.0000
  O1     O1        0.136131490725799    0.852871308363963    0.882865981291723  0.0000
  O3     O3        0.427442262205487    0.741134560854027    0.901827577880193  0.0000
  O1     O1        0.088028852127624    0.196249021112527    0.897217669808515  0.0000
  O3     O3        0.625250500164995    0.863556741922983    0.153007849795247  0.0000
  O1     O1        0.877713582308497    0.076802840425655    0.139948637770103  0.0000
  O2     O2        0.488854555867207    0.946914841501460    0.064052678823257  0.0000
  O1     O1        0.982893634476083    0.937391391346853    0.955844720273505  0.0000
  O1     O1        0.160017968803131    0.514360937052705    0.357058763817167  0.0000
  O1     O1        0.343291056377721    0.428124895429215    0.365288095295628  0.0000
  O1     O1        0.840144460638960    0.430699245377670    0.677214697195631  0.0000
  O1     O1        0.650877718271315    0.509333785485695    0.680329000474670  0.0000
  O1     O1        0.232576401127658    0.196219027178683    0.299987275619104  0.0000
  O1     O1        0.273465005023178    0.743758501922265    0.298002240883075  0.0000
  O1     O1        0.728725969665342    0.200818227013211    0.744311808117025  0.0000
  O1     O1        0.764439612367148    0.742279270780512    0.735312186636664  0.0000
  O1     O1        0.119371299887220    0.327152727434498    0.140352865219214  0.0000
  O1     O1        0.391964177017926    0.600972906051007    0.147027633816980  0.0000
  O1     O1        0.860346828723199    0.212793073373062    0.893538754406067  0.0000
  O1     O1        0.638775948313478    0.718089386648435    0.901242090984132  0.0000
  O1     O1        0.878965462470481    0.604964879710579    0.897576016984346  0.0000
  O1     O1        0.610552936164442    0.330412226678968    0.899480773312685  0.0000
  O1     O1        0.145367983153725    0.727214852708858    0.137866488017673  0.0000
  O1     O1        0.365336990014547    0.211207461980586    0.150550464830824  0.0000
  O1     O1        0.653622984775470    0.506019116322276    0.117933093363513  0.0000
  O1     O1        0.840779702041868    0.422755340718248    0.116594168863951  0.0000
  O1     O1        0.354828732451018    0.420393379165763    0.928548201282577  0.0000
  O1     O1        0.165890611927768    0.503844339924084    0.924135889290947  0.0000
  O1     O1        0.730381594395148    0.194537873575973    0.050811984993297  0.0000
  O1     O1        0.765888538501842    0.738771955793151    0.061269526674228  0.0000
  O1     O1        0.240413282729360    0.191997975001235    0.984976235251600  0.0000
  O1     O1        0.276961855085079    0.733550042723619    0.987083853149177  0.0000
