data_c00063.vasp
_audit_creation_method             Generated by GULP
_audit_author_name                 Salvador R. G. Balestra
_symmetry_space_group_name_H-M     'P 1             '
_symmetry_Int_Tables_number        1

loop_
_symmetry_equiv_pos_site_id
_symmetry_equiv_pos_as_xyz
_cell_length_a                       17.2051
_cell_length_b                        7.6223
_cell_length_c                       10.2289
_cell_angle_alpha                   90.1160
_cell_angle_beta                    91.4337
_cell_angle_gamma                   89.3997

loop_
_atom_site_label
_atom_site_type_symbol
_atom_site_fract_x
_atom_site_fract_y
_atom_site_fract_z
_atom_site_charge
  Ge     Ge        0.052090000000021    0.000000000000000    0.372269999999958  0.0000
  Ge     Ge        0.158702810762552    0.303401122042545    0.284437447106498  0.0000
  Ge     Ge        0.177254207399529    0.722593758108622    0.280088342479213  0.0000
  Si     Si        0.460914925199268    0.969891256311704    0.370622047779265  0.0000
  Si     Si        0.947862147556101    0.978532778381365    0.622143694024584  0.0000
  Si     Si        0.551629713924703    0.978845923063473    0.641009469649915  0.0000
  Si     Si        0.564884737156345    0.979823980109480    0.128674827891047  0.0000
  Si     Si        0.954680548886927    0.971815126443597    0.102834643444579  0.0000
  Si     Si        0.446315327812588    0.970016620722750    0.890192418788334  0.0000
  Si     Si        0.061573592696861    0.987805838380678    0.861542214242311  0.0000
  Si     Si        0.358093796638502    0.663754633580091    0.277773557040396  0.0000
  Si     Si        0.843563993445803    0.281077799092193    0.721707825595175  0.0000
  Si     Si        0.660508377642579    0.675700661534989    0.723953297020357  0.0000
  Si     Si        0.839017024854867    0.683539918466769    0.723439608508196  0.0000
  Si     Si        0.664475691321028    0.271682750030977    0.723291890921295  0.0000
  Si     Si        0.341606035672528    0.261711790869156    0.280110533546225  0.0000
  Si     Si        0.671141422750422    0.270525611280331    0.028116912404557  0.0000
  Si     Si        0.842410511410040    0.680305865667824    0.029850502181065  0.0000
  Si     Si        0.334928452599649    0.262501919522605    0.972381678836312  0.0000
  Si     Si        0.171912209211709    0.700712896058055    0.970685751968685  0.0000
  Si     Si        0.349999306336356    0.657555311746585    0.969993784989022  0.0000
  Si     Si        0.156402385794232    0.294766554182424    0.975759211584306  0.0000
  Si     Si        0.663719740915411    0.670800519246022    0.029654070472911  0.0000
  Si     Si        0.850652369113141    0.281972857151965    0.027562434071168  0.0000
  O1     O1        0.091560818866124    0.203416982964878    0.378426082612541  0.0000
  O2     O2        0.423724407797696    0.778555559428090    0.350716394387945  0.0000
  O2     O2        0.898428864048571    0.157549399514396    0.637042344772871  0.0000
  O2     O2        0.602301082320021    0.799751214968909    0.641217545144918  0.0000
  O2     O2        0.893723220042236    0.811406815096836    0.644894089943130  0.0000
  O2     O2        0.609261317296071    0.144504848043269    0.639196338188784  0.0000
  O1     O1        0.131598129756264    0.862669985325012    0.382180346979747  0.0000
  O2     O2        0.395934013004724    0.121605621970404    0.355240851782756  0.0000
  O3     O3        0.977689142105195    0.967081638291927    0.476768609166713  0.0000
  O2     O2        0.496152217765896    0.983386593307266    0.515221845073137  0.0000
  O3     O3        0.016690578439912    0.951659707044687    0.216108079929772  0.0000
  O2     O2        0.530412271283044    0.995248907361932    0.271295360067140  0.0000
  O2     O2        0.024772951991351    0.980706158854997    0.715684367391265  0.0000
  O2     O2        0.497795176578186    0.990060382114445    0.765254448491012  0.0000
  O2     O2        0.624916836526514    0.138176107968002    0.116701805218515  0.0000
  O2     O2        0.893300941765919    0.814004784062352    0.114564902125543  0.0000
  O2     O2        0.379137352629359    0.118838227142217    0.886717499344473  0.0000
  O2     O2        0.124645576129732    0.830136131867829    0.872520159047041  0.0000
  O2     O2        0.407536329367392    0.777906237663728    0.888529639182603  0.0000
  O2     O2        0.099785472516486    0.179273591066799    0.882366423329191  0.0000
  O2     O2        0.608751886613429    0.793239577813438    0.115057098716064  0.0000
  O2     O2        0.908128168202612    0.157751668944962    0.112430798858004  0.0000
  O2     O2        0.496811763133303    0.999918672504983    0.021155109508026  0.0000
  O2     O2        0.994031499102022    0.955937190436187    0.962773730656899  0.0000
  O1     O1        0.139535893420672    0.519290351677303    0.300908209786141  0.0000
  O2     O2        0.373771273303925    0.457800370003967    0.306268916743633  0.0000
  O2     O2        0.862556071760145    0.483098489877562    0.690042125428661  0.0000
  O2     O2        0.640438465693789    0.473213859772824    0.694593782906062  0.0000
  O3     O3        0.254309819799308    0.249866373696194    0.328400414199753  0.0000
  O3     O3        0.274473746393842    0.718208791909850    0.327000007103454  0.0000
  O2     O2        0.753899733703599    0.240732841671330    0.684816845528652  0.0000
  O2     O2        0.748671124731008    0.715958636117014    0.683383213951328  0.0000
  O3     O3        0.145233717063073    0.234578579550253    0.123094692953983  0.0000
  O2     O2        0.360535157266336    0.701686059286658    0.122851678547976  0.0000
  O2     O2        0.860654028332140    0.241679945137488    0.874231192733416  0.0000
  O2     O2        0.650066637157523    0.717031452479373    0.877168150573584  0.0000
  O2     O2        0.850206825728848    0.721016221213862    0.876826702039242  0.0000
  O2     O2        0.655794847898887    0.226248210763314    0.875881246785894  0.0000
  O3     O3        0.167767934210914    0.776814340250536    0.115704466783539  0.0000
  O2     O2        0.342319009024748    0.218682937294784    0.125718935974971  0.0000
  O2     O2        0.642676053524452    0.468904059350614    0.056878566602266  0.0000
  O2     O2        0.872384523620830    0.482701683032602    0.060047311762580  0.0000
  O2     O2        0.370750106995863    0.453745172548302    0.943321657314240  0.0000
  O2     O2        0.136897752018140    0.503329172469231    0.963980563272662  0.0000
  O2     O2        0.761996138665239    0.247550673660050    0.064992748403004  0.0000
  O2     O2        0.753233054814192    0.703349540986070    0.070397969186141  0.0000
  O2     O2        0.244381791046613    0.260672256686873    0.930333472651113  0.0000
  O2     O2        0.261066031578446    0.695518605949008    0.925392841978906  0.0000
