data_c00028.vasp
_audit_creation_method             Generated by GULP
_audit_author_name                 Salvador R. G. Balestra
_symmetry_space_group_name_H-M     'P 1             '
_symmetry_Int_Tables_number        1

loop_
_symmetry_equiv_pos_site_id
_symmetry_equiv_pos_as_xyz
_cell_length_a                       17.0280
_cell_length_b                        7.6048
_cell_length_c                       10.3376
_cell_angle_alpha                   89.6544
_cell_angle_beta                    90.9764
_cell_angle_gamma                   90.4970

loop_
_atom_site_label
_atom_site_type_symbol
_atom_site_fract_x
_atom_site_fract_y
_atom_site_fract_z
_atom_site_charge
  Ge     Ge        0.052090000000021    0.000000000000000    0.372269999999958  0.0000
  Ge     Ge        0.555811497891708    0.976569739058829    0.125933035692542  0.0000
  Ge     Ge        0.825816494282360    0.717022185580484    0.029553076290288  0.0000
  Si     Si        0.454504985776866    0.989903545508024    0.376558403605926  0.0000
  Si     Si        0.945322998103859    0.006565088542605    0.627206549437921  0.0000
  Si     Si        0.545876107665633    0.983701985440505    0.642343921920262  0.0000
  Si     Si        0.942328947317919    0.000629150425646    0.114987832549771  0.0000
  Si     Si        0.438201999240221    0.000934311736833    0.887716032988401  0.0000
  Si     Si        0.049124196333122    0.994290945013101    0.878417369094342  0.0000
  Si     Si        0.158351988750001    0.306805326670895    0.288423992787580  0.0000
  Si     Si        0.350350058965126    0.684108419842407    0.276153451526359  0.0000
  Si     Si        0.845549195233744    0.312588879775944    0.720514687323521  0.0000
  Si     Si        0.649489940523801    0.672503008826877    0.721881802950862  0.0000
  Si     Si        0.827935795596207    0.717429257407987    0.720993750308319  0.0000
  Si     Si        0.664780864342839    0.270142029755689    0.719215188678360  0.0000
  Si     Si        0.169213175911294    0.713772061150196    0.285447219939490  0.0000
  Si     Si        0.338763688743078    0.280057245279390    0.275988389574936  0.0000
  Si     Si        0.670869921907979    0.260616514893232    0.019713324624451  0.0000
  Si     Si        0.328157678310804    0.284474638647859    0.973586088266601  0.0000
  Si     Si        0.160576656965536    0.710032829175731    0.985625001409222  0.0000
  Si     Si        0.342725429777108    0.683653637762200    0.975570111042971  0.0000
  Si     Si        0.146861173768894    0.306419053932406    0.988303070297240  0.0000
  Si     Si        0.644480192792763    0.653390177422583    0.026194430500539  0.0000
  Si     Si        0.853025266929621    0.319156189558848    0.020484937076814  0.0000
  O3     O3        0.102352555638803    0.197848064363719    0.380462901083650  0.0000
  O2     O2        0.411445866030993    0.802024003165877    0.356782097194102  0.0000
  O2     O2        0.904024487899000    0.197077608691739    0.635859306541331  0.0000
  O2     O2        0.586329092932634    0.792373886928582    0.645937077781353  0.0000
  O2     O2        0.880301528773766    0.852679727454209    0.639254548755353  0.0000
  O2     O2        0.613480184990878    0.133900863965054    0.634173145297463  0.0000
  O3     O3        0.121594197050601    0.834929660857544    0.379460453938757  0.0000
  O2     O2        0.392869791267167    0.147379538037440    0.356535656715951  0.0000
  O3     O3        0.983165312558959    0.986801709531720    0.489142302231828  0.0000
  O2     O2        0.487789551557196    0.997986032888759    0.521121177874032  0.0000
  O3     O3        0.004235262941515    0.974840270298113    0.226958834639599  0.0000
  O3     O3        0.526442059484838    0.007840478884116    0.281230453251491  0.0000
  O2     O2        0.015511727078909    0.989132871470676    0.733038018083348  0.0000
  O2     O2        0.494195248852326    0.015806133280809    0.767213756689043  0.0000
  O3     O3        0.638712782317536    0.106427121358899    0.106905136214605  0.0000
  O3     O3        0.869555559204877    0.868534363985400    0.129449880424099  0.0000
  O2     O2        0.370495409403554    0.149159312265760    0.879976506904376  0.0000
  O2     O2        0.114688398123959    0.843512378817238    0.892029908273515  0.0000
  O2     O2        0.397850990280242    0.807213680883979    0.888809518593071  0.0000
  O2     O2        0.086774438514025    0.186974586147978    0.905505240734974  0.0000
  O3     O3        0.578993889302813    0.759193074148087    0.099547569903674  0.0000
  O2     O2        0.909515127093740    0.199551750157118    0.109665514850140  0.0000
  O3     O3        0.485409421749116    0.044688611367684    0.017759188983626  0.0000
  O2     O2        0.980424781238726    0.949716309031001    0.977546230926482  0.0000
  O2     O2        0.144832729705257    0.512149569367828    0.311334906612066  0.0000
  O2     O2        0.366344145661150    0.479476327822698    0.306287511313958  0.0000
  O2     O2        0.860550407584029    0.520325387278138    0.698549222323952  0.0000
  O2     O2        0.632309079227320    0.466844996410908    0.694000768528475  0.0000
  O2     O2        0.248745867453717    0.255226306081563    0.317816723487946  0.0000
  O2     O2        0.262254859850036    0.736187671421196    0.312609615236647  0.0000
  O2     O2        0.756029016721415    0.262893127796922    0.680135611279719  0.0000
  O2     O2        0.736681529059101    0.723234618942459    0.673837183160658  0.0000
  O2     O2        0.136911177833175    0.257748378821813    0.139282980154511  0.0000
  O2     O2        0.364733448300461    0.723989270586830    0.124921444035382  0.0000
  O2     O2        0.863422734787511    0.266479240177136    0.870289536957817  0.0000
  O2     O2        0.643171009941717    0.708489600243744    0.874448651528006  0.0000
  O3     O3        0.830788177693747    0.774571401152986    0.868685320591889  0.0000
  O2     O2        0.658374145023802    0.212149008706687    0.868723046607285  0.0000
  O2     O2        0.150571538771528    0.764076377604324    0.135283875297286  0.0000
  O2     O2        0.345788183004964    0.239627487389291    0.123960575208352  0.0000
  O2     O2        0.627123298199442    0.445481284307154    0.044284445859260  0.0000
  O3     O3        0.874299330096334    0.518622985363898    0.046926968451423  0.0000
  O2     O2        0.359350470017782    0.481129098298334    0.942144254090206  0.0000
  O2     O2        0.127910780502920    0.511822185303971    0.963521677299621  0.0000
  O2     O2        0.762239398084375    0.287376188702604    0.054922190529740  0.0000
  O3     O3        0.730465586566574    0.701390894281911    0.080507267423717  0.0000
  O2     O2        0.235335635081142    0.268956071857450    0.945099882292969  0.0000
  O2     O2        0.251585338845119    0.723789274186789    0.948370881772754  0.0000
