data_c00055.vasp
_audit_creation_method             Generated by GULP
_audit_author_name                 Salvador R. G. Balestra
_symmetry_space_group_name_H-M     'P 1             '
_symmetry_Int_Tables_number        1

loop_
_symmetry_equiv_pos_site_id
_symmetry_equiv_pos_as_xyz
_cell_length_a                       17.1462
_cell_length_b                        7.5954
_cell_length_c                       10.2611
_cell_angle_alpha                   89.8609
_cell_angle_beta                    90.4105
_cell_angle_gamma                   90.0600

loop_
_atom_site_label
_atom_site_type_symbol
_atom_site_fract_x
_atom_site_fract_y
_atom_site_fract_z
_atom_site_charge
  Ge     Ge        0.052090000000021    0.000000000000000    0.372269999999958  0.0000
  Ge     Ge        0.057808880265216    0.994148885045768    0.873239629095433  0.0000
  Ge     Ge        0.851279558175268    0.677197484135915    0.043552934550371  0.0000
  Si     Si        0.453219232007898    0.012362020672450    0.379475821493338  0.0000
  Si     Si        0.947389563228697    0.998026213339096    0.626491630654052  0.0000
  Si     Si        0.549292380753008    0.009782186808845    0.642351164053049  0.0000
  Si     Si        0.556332604967367    0.000381534441716    0.126564584126654  0.0000
  Si     Si        0.947783617003964    0.996984240786798    0.116665204194857  0.0000
  Si     Si        0.442531215225259    0.008957936147443    0.888723712424665  0.0000
  Si     Si        0.173165443451444    0.281609873684885    0.295700869520890  0.0000
  Si     Si        0.336884734692064    0.725572362211239    0.291995717247048  0.0000
  Si     Si        0.832868707364583    0.287887584249928    0.730518916046392  0.0000
  Si     Si        0.666125100906861    0.719547713389987    0.736484363923723  0.0000
  Si     Si        0.844989550774983    0.694386699905400    0.732622225695249  0.0000
  Si     Si        0.654272549155086    0.314244197865242    0.730077429361284  0.0000
  Si     Si        0.156906729816657    0.689497215286833    0.292021296087525  0.0000
  Si     Si        0.353098282196113    0.322963279928055    0.295002240508069  0.0000
  Si     Si        0.652284097627567    0.314421068809540    0.033757668010802  0.0000
  Si     Si        0.351969297968979    0.324575711149995    0.991769326030456  0.0000
  Si     Si        0.152608525000916    0.680776352354641    0.991367905165468  0.0000
  Si     Si        0.332957345858810    0.722110763448709    0.987446446682895  0.0000
  Si     Si        0.171748681833871    0.277174434903033    0.994985169507691  0.0000
  Si     Si        0.668201700690416    0.711507677853545    0.042219115914594  0.0000
  Si     Si        0.831831015653779    0.274789881651244    0.036451205286100  0.0000
  O3     O3        0.124148509239752    0.158920853497499    0.389988963034420  0.0000
  O2     O2        0.386253502820793    0.862877732918514    0.377257557805188  0.0000
  O2     O2        0.887276271851202    0.157867332849619    0.649772272810566  0.0000
  O2     O2        0.611934128225768    0.853319482087094    0.657042444701359  0.0000
  O2     O2        0.903870701204224    0.811614229756645    0.647713734235315  0.0000
  O2     O2        0.594090500371321    0.196805318660892    0.647269590392519  0.0000
  O3     O3        0.097921120938877    0.797315079786172    0.379772400856734  0.0000
  O2     O2        0.412182176474607    0.203939153510901    0.379557957452452  0.0000
  O3     O3        0.976838435675613    0.009612917869002    0.480059005765948  0.0000
  O2     O2        0.506651317240489    0.990716383074518    0.505309175154097  0.0000
  O3     O3        0.009755948580813    0.046749062918430    0.223833514111745  0.0000
  O2     O2        0.508401100503157    0.987071914166433    0.257068017258123  0.0000
  O3     O3        0.024518164591990    0.011300777877141    0.715519164933881  0.0000
  O2     O2        0.482791470388249    0.995954949583048    0.750194602522760  0.0000
  O2     O2        0.595569616110804    0.192947178647351    0.118226886520424  0.0000
  O3     O3        0.918324035640504    0.797032270784634    0.131940272072139  0.0000
  O2     O2        0.408479715920559    0.205468819579791    0.905085167108908  0.0000
  O3     O3        0.093864367534160    0.783769862287068    0.899511876457000  0.0000
  O2     O2        0.373417367402393    0.865221475852929    0.895260065566334  0.0000
  O3     O3        0.131569921895863    0.145269181081783    0.896833750915175  0.0000
  O2     O2        0.621988238064330    0.849770835567977    0.129652734857351  0.0000
  O2     O2        0.869855013296477    0.118663926936883    0.120150406513206  0.0000
  O2     O2        0.503096588857663    0.961457225345708    0.001832758887482  0.0000
  O3     O3        0.982350980810045    0.036981187479026    0.974881096716216  0.0000
  O2     O2        0.144713824361744    0.482195026675661    0.313419530533249  0.0000
  O2     O2        0.366711377587546    0.528673636311830    0.325465828007879  0.0000
  O2     O2        0.861342770848942    0.487922750727508    0.705976630716692  0.0000
  O2     O2        0.637452305749467    0.520745797137042    0.707022923575243  0.0000
  O2     O2        0.264832983444574    0.269349421993624    0.329888689342972  0.0000
  O2     O2        0.245857332017727    0.743160609143288    0.327443152380749  0.0000
  O2     O2        0.742497528306086    0.268624170257288    0.686764311402992  0.0000
  O2     O2        0.755880375382180    0.740675839524690    0.692566035583464  0.0000
  O2     O2        0.160061290147413    0.219128105005332    0.145700944317089  0.0000
  O2     O2        0.347288691806410    0.768225090693634    0.139072526383312  0.0000
  O2     O2        0.839385635009426    0.239840756122868    0.882172428721731  0.0000
  O2     O2        0.663063755624487    0.763168806308992    0.889608705619456  0.0000
  O3     O3        0.861804230489617    0.737385959183728    0.882134316336749  0.0000
  O2     O2        0.641818832202044    0.266516867727392    0.881660318928266  0.0000
  O2     O2        0.138233800118320    0.740497200816369    0.141110507657570  0.0000
  O2     O2        0.369889233733216    0.285082528532266    0.143327515077593  0.0000
  O2     O2        0.630799233746369    0.517179809697789    0.060659800631967  0.0000
  O3     O3        0.872898721223922    0.458636181400120    0.068552787130838  0.0000
  O2     O2        0.368143499058608    0.528839596670206    0.958221875626655  0.0000
  O2     O2        0.136731011629316    0.473002239131716    0.976116883149396  0.0000
  O2     O2        0.741421505106218    0.282581687792650    0.076077715357919  0.0000
  O3     O3        0.756583991435489    0.713910820992557    0.089843614876132  0.0000
  O2     O2        0.262905670316738    0.277681376485628    0.960347523105409  0.0000
  O2     O2        0.241509749747645    0.725856144752365    0.953739889143010  0.0000
