data_c00083.vasp
_audit_creation_method             Generated by GULP
_audit_author_name                 Salvador R. G. Balestra
_symmetry_space_group_name_H-M     'P 1             '
_symmetry_Int_Tables_number        1

loop_
_symmetry_equiv_pos_site_id
_symmetry_equiv_pos_as_xyz
_cell_length_a                       17.1968
_cell_length_b                        7.6143
_cell_length_c                       10.1806
_cell_angle_alpha                   88.6869
_cell_angle_beta                    91.0094
_cell_angle_gamma                   88.9924

loop_
_atom_site_label
_atom_site_type_symbol
_atom_site_fract_x
_atom_site_fract_y
_atom_site_fract_z
_atom_site_charge
  Ge     Ge        0.052090000000021    0.000000000000000    0.372269999999958  0.0000
  Ge     Ge        0.354230288640148    0.669173898209226    0.295107240084384  0.0000
  Ge     Ge        0.147745008425910    0.336607780378282    0.976386478630742  0.0000
  Si     Si        0.455166484779319    0.975830152221537    0.379094530937721  0.0000
  Si     Si        0.947050456078217    0.001918476097184    0.627845774827338  0.0000
  Si     Si        0.548728836891700    0.010842465149927    0.641688022119778  0.0000
  Si     Si        0.556813078243583    0.999307910814663    0.130470561495149  0.0000
  Si     Si        0.945230968439214    0.990114695611404    0.111507422919168  0.0000
  Si     Si        0.440879319710912    0.007551675192092    0.890833763637460  0.0000
  Si     Si        0.053594382258815    0.026137492578404    0.872422866890237  0.0000
  Si     Si        0.156412674661647    0.306699325485343    0.286400468025398  0.0000
  Si     Si        0.841279495417084    0.304747169185586    0.727648526623152  0.0000
  Si     Si        0.656872945937182    0.702119310732539    0.720668870295313  0.0000
  Si     Si        0.835372657532822    0.708619177530373    0.725490191045155  0.0000
  Si     Si        0.661988443904472    0.297502013523183    0.724091813318243  0.0000
  Si     Si        0.171628746206665    0.712696190816828    0.299515407316786  0.0000
  Si     Si        0.334395538060334    0.263642721997219    0.275680814176955  0.0000
  Si     Si        0.663641398835838    0.291537160022306    0.030572631514159  0.0000
  Si     Si        0.834605957124659    0.701668338930012    0.033480855463736  0.0000
  Si     Si        0.328858467350914    0.301097204897123    0.965405455379218  0.0000
  Si     Si        0.166445525075106    0.742375100545791    0.994370338234324  0.0000
  Si     Si        0.346856767124865    0.695108221739791    0.983155572148566  0.0000
  Si     Si        0.655932096570984    0.691601451960348    0.027850077445170  0.0000
  Si     Si        0.843181981178766    0.303354832650371    0.034892662926634  0.0000
  O3     O3        0.099599354804081    0.197325642124850    0.377689127354150  0.0000
  O3     O3        0.422666295227641    0.780756387765325    0.384637421138440  0.0000
  O2     O2        0.898577173866373    0.182582725643222    0.646614468444232  0.0000
  O2     O2        0.598372222239408    0.828827633913253    0.636734500617064  0.0000
  O2     O2        0.890854875590608    0.836723190120682    0.646227691128768  0.0000
  O2     O2        0.607908307786474    0.172908337258530    0.638817939982850  0.0000
  O3     O3        0.120284631044104    0.831265374657172    0.392574915707070  0.0000
  O2     O2        0.381118380471139    0.101132379047138    0.342529276911415  0.0000
  O3     O3        0.978431684386429    0.997011735398846    0.482845108611839  0.0000
  O2     O2        0.491054335864939    0.028600176661767    0.518062410289565  0.0000
  O3     O3        0.008960829816913    0.964995990957143    0.221844292627173  0.0000
  O2     O2        0.523391220816776    0.998651392321851    0.275085352069432  0.0000
  O2     O2        0.022262475731072    0.990633500458378    0.725514154156575  0.0000
  O2     O2        0.497250223486793    0.017430791682926    0.769825342127342  0.0000
  O2     O2        0.617306907605676    0.157113108818406    0.120640267425481  0.0000
  O2     O2        0.883658753118626    0.832883460810738    0.120580817523171  0.0000
  O2     O2        0.377567789385255    0.165757344357422    0.879010694627580  0.0000
  O2     O2        0.127903397588801    0.899945513409767    0.907184273538449  0.0000
  O2     O2        0.397961281292595    0.821005320662360    0.890892098506186  0.0000
  O3     O3        0.081305176696731    0.224967714819785    0.882600654932066  0.0000
  O2     O2        0.599062298509812    0.812136382856671    0.110289686765026  0.0000
  O2     O2        0.898964402915668    0.176467431550905    0.123770870542903  0.0000
  O2     O2        0.488180426207571    0.033351904293461    0.025411417678254  0.0000
  O2     O2        0.984502284807604    0.981580277222858    0.970003217727910  0.0000
  O2     O2        0.141326436314677    0.513527903111398    0.303992303784424  0.0000
  O3     O3        0.372445168298082    0.446072814557579    0.312937179550214  0.0000
  O2     O2        0.859682810532264    0.507970807709544    0.695194484016814  0.0000
  O2     O2        0.637912869903930    0.499898673999093    0.692134682923392  0.0000
  O2     O2        0.245957286188231    0.258511120443171    0.326022909946284  0.0000
  O3     O3        0.261028821066852    0.714900593758779    0.345081435656459  0.0000
  O2     O2        0.752052654030522    0.265147213238673    0.688427348831026  0.0000
  O2     O2        0.745485880511340    0.742597194525290    0.681585757716725  0.0000
  O3     O3        0.139662367738361    0.258247632594632    0.135813006313623  0.0000
  O3     O3        0.366006885414369    0.734613908355029    0.133240570013618  0.0000
  O2     O2        0.855780122077200    0.263779838623347    0.881903387149261  0.0000
  O2     O2        0.644955591378437    0.740239156766106    0.874034064571880  0.0000
  O2     O2        0.844023042334777    0.745137987123182    0.879568990405036  0.0000
  O2     O2        0.650727962105549    0.249695528196058    0.877538363332848  0.0000
  O2     O2        0.163921644176749    0.787277298613317    0.148845500922643  0.0000
  O2     O2        0.330813374136057    0.243574477977981    0.118702230267766  0.0000
  O2     O2        0.633975712812367    0.489628040195571    0.056642171995450  0.0000
  O2     O2        0.864989432442647    0.503215031836680    0.065556158130923  0.0000
  O2     O2        0.367117884252310    0.493236707550044    0.949913291005025  0.0000
  O3     O3        0.125370316043582    0.559259866648434    0.968101629847254  0.0000
  O2     O2        0.754058187400114    0.269806682589969    0.070279834104697  0.0000
  O2     O2        0.744711835249042    0.723015856708301    0.071916980059633  0.0000
  O3     O3        0.240294607369345    0.305319750516536    0.916970119401553  0.0000
  O2     O2        0.255771474111117    0.728177444804921    0.952002614573845  0.0000
