data_c00017.vasp
_audit_creation_method             Generated by GULP
_audit_author_name                 Salvador R. G. Balestra
_symmetry_space_group_name_H-M     'P 1             '
_symmetry_Int_Tables_number        1

loop_
_symmetry_equiv_pos_site_id
_symmetry_equiv_pos_as_xyz
_cell_length_a                       17.3172
_cell_length_b                        7.6573
_cell_length_c                       10.1967
_cell_angle_alpha                   89.5315
_cell_angle_beta                    89.5442
_cell_angle_gamma                   90.1682

loop_
_atom_site_label
_atom_site_type_symbol
_atom_site_fract_x
_atom_site_fract_y
_atom_site_fract_z
_atom_site_charge
  Ge     Ge        0.052090000000021    0.000000000000000    0.372269999999958  0.0000
  Ge     Ge        0.557343355654137    0.016701666359412    0.602235020418086  0.0000
  Ge     Ge        0.342420096086997    0.720374929002118    0.271623307556105  0.0000
  Si     Si        0.457904486446414    0.012101357319126    0.341130069813276  0.0000
  Si     Si        0.956649037351532    0.014268829519072    0.641269438220025  0.0000
  Si     Si        0.556474985975686    0.007132405079600    0.082043708045078  0.0000
  Si     Si        0.942044544666870    0.010380259571310    0.129281366060879  0.0000
  Si     Si        0.443484008011946    0.017156933856091    0.845366781767283  0.0000
  Si     Si        0.058555879265476    0.008076771161853    0.895143255023676  0.0000
  Si     Si        0.170365558334811    0.293174307489169    0.270339766062840  0.0000
  Si     Si        0.846512342918366    0.311803268425532    0.711021223447432  0.0000
  Si     Si        0.669738052821926    0.718228483062933    0.704620430357086  0.0000
  Si     Si        0.847422949108229    0.713269804839334    0.711190643401937  0.0000
  Si     Si        0.668675782698315    0.313635235641029    0.704086793088358  0.0000
  Si     Si        0.162085342288649    0.699258512586915    0.275005470532040  0.0000
  Si     Si        0.348473959401056    0.309598503151866    0.265668367576933  0.0000
  Si     Si        0.661761314514396    0.311457250375043    0.008773465997623  0.0000
  Si     Si        0.842638142388614    0.707468542992348    0.018367988643712  0.0000
  Si     Si        0.345806789639960    0.320550683649197    0.958638336474680  0.0000
  Si     Si        0.161851990704672    0.702150890134373    0.967501954520309  0.0000
  Si     Si        0.339822885185453    0.720846781602450    0.958032576720568  0.0000
  Si     Si        0.167301703500277    0.303915329721873    0.965359338992706  0.0000
  Si     Si        0.664558082991795    0.711499724682536    0.009518665988425  0.0000
  Si     Si        0.840100849537177    0.309592481012448    0.017860936086049  0.0000
  O3     O3        0.117353472457410    0.168462404949010    0.355663518572789  0.0000
  O3     O3        0.402712101577370    0.846127906368302    0.364209005238364  0.0000
  O2     O2        0.902160135708521    0.185294925029448    0.629279679514219  0.0000
  O3     O3        0.614477367925961    0.834338149422820    0.618212784349786  0.0000
  O2     O2        0.903592180292859    0.840596466342836    0.629212917774111  0.0000
  O3     O3        0.613797124035571    0.200528308579731    0.616093757337445  0.0000
  O3     O3        0.098074470835716    0.802855097394085    0.354082611709323  0.0000
  O2     O2        0.404117241607348    0.183853396169610    0.347674855889614  0.0000
  O3     O3        0.021250983383955    0.014851569708189    0.532268767987754  0.0000
  O3     O3        0.525788831425242    0.019906477769307    0.442964514924333  0.0000
  O3     O3        0.971093605336626    0.014918948525875    0.276296189103062  0.0000
  O2     O2        0.493893854456349    0.996942672613404    0.195654647364386  0.0000
  O2     O2        0.996531458694872    0.015329510413520    0.782391537772173  0.0000
  O3     O3        0.475755252396459    0.016636821129344    0.699192534431325  0.0000
  O2     O2        0.606724054739222    0.184759687544878    0.093989899944515  0.0000
  O2     O2        0.894109555008847    0.832937980244167    0.106196185311286  0.0000
  O2     O2        0.398556718825582    0.198508644204401    0.868870687381873  0.0000
  O2     O2        0.106126113259090    0.827587286482616    0.884865360846585  0.0000
  O2     O2        0.386943545863174    0.851537747343460    0.863541007494602  0.0000
  O2     O2        0.116716171629803    0.172536049078993    0.879395750496570  0.0000
  O2     O2        0.611845325367289    0.838644762195870    0.095654669359384  0.0000
  O2     O2        0.888659715824915    0.178888451268828    0.106583799620069  0.0000
  O2     O2        0.516074649145545    0.001871339829240    0.941378391315063  0.0000
  O2     O2        0.017089761959052    0.017709492815507    0.036130886246940  0.0000
  O2     O2        0.148889552008137    0.493401954963486    0.298514275148025  0.0000
  O3     O3        0.367954440940496    0.506215095959405    0.299616654039755  0.0000
  O2     O2        0.868721531980653    0.512828218279245    0.679493598630210  0.0000
  O2     O2        0.650082459929398    0.516347273485506    0.679223568331199  0.0000
  O2     O2        0.260119520904585    0.263318068706904    0.304598181688348  0.0000
  O3     O3        0.247585527467821    0.751956523482960    0.318566457293768  0.0000
  O2     O2        0.758296476023098    0.275874475491015    0.670093079852009  0.0000
  O2     O2        0.759623465239932    0.753407513182496    0.669750780517447  0.0000
  O2     O2        0.157146624062450    0.250739890072260    0.117388152278052  0.0000
  O3     O3        0.352819919624676    0.772292398306970    0.107260418229401  0.0000
  O2     O2        0.855877485934110    0.271226002349837    0.865347588148426  0.0000
  O2     O2        0.655539148466433    0.763527745432648    0.857230504815071  0.0000
  O2     O2        0.857637342977567    0.749574659212942    0.865592548635381  0.0000
  O2     O2        0.652363659304231    0.263922152497333    0.856199273639577  0.0000
  O2     O2        0.153994863440710    0.746098435584083    0.120753947999151  0.0000
  O2     O2        0.360142190392013    0.275356313774073    0.110504339778680  0.0000
  O2     O2        0.637618341534113    0.511776780504174    0.034462477779283  0.0000
  O2     O2        0.865576470926250    0.507519810819427    0.050479409156777  0.0000
  O2     O2        0.368344440640837    0.522566770981270    0.932131124939510  0.0000
  O2     O2        0.138131395058949    0.501573293699960    0.940590672203859  0.0000
  O2     O2        0.749966053955125    0.282454890646609    0.051596051820020  0.0000
  O2     O2        0.752877662624581    0.736426750646497    0.053177179511928  0.0000
  O2     O2        0.256576550604281    0.287714507681932    0.922690594920865  0.0000
  O2     O2        0.249674152231900    0.735291658578255    0.921823348607017  0.0000
