data_c00098.vasp
_audit_creation_method             Generated by GULP
_audit_author_name                 Salvador R. G. Balestra
_symmetry_space_group_name_H-M     'P 1             '
_symmetry_Int_Tables_number        1

loop_
_symmetry_equiv_pos_site_id
_symmetry_equiv_pos_as_xyz
_cell_length_a                       17.1678
_cell_length_b                        7.6270
_cell_length_c                       10.3069
_cell_angle_alpha                   90.7897
_cell_angle_beta                    90.3905
_cell_angle_gamma                   90.5194

loop_
_atom_site_label
_atom_site_type_symbol
_atom_site_fract_x
_atom_site_fract_y
_atom_site_fract_z
_atom_site_charge
  Ge     Ge        0.052090000000021    0.000000000000000    0.372269999999958  0.0000
  Ge     Ge        0.656556308898393    0.675003842544901    0.708785657104400  0.0000
  Ge     Ge        0.674304905648606    0.280475907299889    0.026826663583654  0.0000
  Si     Si        0.453886210165611    0.995658244450835    0.368510218710006  0.0000
  Si     Si        0.955368367247546    0.995766046262120    0.640346226331976  0.0000
  Si     Si        0.551974262356677    0.979203566023483    0.626341841540688  0.0000
  Si     Si        0.564212499627615    0.993347668020184    0.123900451762994  0.0000
  Si     Si        0.946957417262968    0.011656296503615    0.120641675774082  0.0000
  Si     Si        0.452271743055334    0.999587186257884    0.883097929250839  0.0000
  Si     Si        0.062391078474724    0.992352134293950    0.890775613398157  0.0000
  Si     Si        0.163162537674527    0.301120535807025    0.273481920468714  0.0000
  Si     Si        0.348959838877027    0.690952537297812    0.281211650525026  0.0000
  Si     Si        0.849325378536848    0.303109815863151    0.717238862241077  0.0000
  Si     Si        0.838711955549617    0.703010215210025    0.705452069406522  0.0000
  Si     Si        0.670732166292475    0.261471768112983    0.720599303182508  0.0000
  Si     Si        0.169864974811340    0.707701114921843    0.275057169193409  0.0000
  Si     Si        0.342646841079335    0.287448706203520    0.275662553910483  0.0000
  Si     Si        0.836828720962289    0.718573455201481    0.010434848894770  0.0000
  Si     Si        0.342823128110546    0.290082458888920    0.972691412281698  0.0000
  Si     Si        0.172006707309240    0.704713295425263    0.973668224902416  0.0000
  Si     Si        0.352028954810843    0.689301777404331    0.978273624434897  0.0000
  Si     Si        0.162734686636807    0.303341560666715    0.972494346939782  0.0000
  Si     Si        0.656385429896952    0.684762619302173    0.014070084662535  0.0000
  Si     Si        0.855524214590519    0.325990040864608    0.022313797866435  0.0000
  O3     O3        0.104661083497898    0.192076022992370    0.358516897561955  0.0000
  O2     O2        0.405052419543016    0.813883373526209    0.368601940422232  0.0000
  O2     O2        0.907642517574603    0.177403205211647    0.639764485764746  0.0000
  O3     O3        0.589899277008074    0.788794153605455    0.618004342264577  0.0000
  O2     O2        0.894488771205880    0.833390014615028    0.626976222111682  0.0000
  O2     O2        0.622757729284215    0.119644733178664    0.635011151045329  0.0000
  O3     O3        0.114862894871641    0.826019402473329    0.360192875713885  0.0000
  O2     O2        0.395612935263165    0.159000349137483    0.358648029766143  0.0000
  O3     O3        0.015786085993347    0.993576235713397    0.526223967795967  0.0000
  O2     O2        0.500843816077015    0.017337574381209    0.500762330852079  0.0000
  O3     O3        0.974271031337064    0.989498832144977    0.266696201826031  0.0000
  O2     O2        0.514480687117417    0.993645198756585    0.252566989898771  0.0000
  O2     O2        0.002433932497996    0.975988975833709    0.774041295719562  0.0000
  O2     O2        0.495182097544224    0.000042121744264    0.747776114567821  0.0000
  O3     O3        0.629439722825969    0.143080116880990    0.133628313727163  0.0000
  O2     O2        0.877062110411038    0.874466732261484    0.091655947373535  0.0000
  O2     O2        0.389510464358454    0.155367655884944    0.883135203895153  0.0000
  O2     O2        0.124275952170968    0.834386121983187    0.882254547370916  0.0000
  O2     O2        0.409672757047020    0.811743130582526    0.898020207791052  0.0000
  O2     O2        0.107430942088923    0.179321126463204    0.883911458608725  0.0000
  O2     O2        0.603863125803833    0.803919798670039    0.107940691218485  0.0000
  O2     O2        0.917935663049794    0.210486878013984    0.099432447533306  0.0000
  O2     O2        0.512452148387577    0.040310013549125    0.998687844581380  0.0000
  O2     O2        0.018696530955705    0.971312089798004    0.026686637079900  0.0000
  O2     O2        0.146993397413607    0.505726666734968    0.296671916620673  0.0000
  O2     O2        0.366938066635730    0.488012871568535    0.309519040692113  0.0000
  O2     O2        0.869574392602560    0.504581678323153    0.684665548893570  0.0000
  O3     O3        0.636475522297339    0.453572277547505    0.701153801721058  0.0000
  O2     O2        0.252399696397972    0.256234293437307    0.310744599479421  0.0000
  O2     O2        0.260110734581966    0.736169099918783    0.315619076609148  0.0000
  O2     O2        0.760705219900496    0.261144380541798    0.673734091007845  0.0000
  O3     O3        0.750536261440790    0.714326718302899    0.656354388568316  0.0000
  O2     O2        0.148877191878627    0.252498146784444    0.121900870531192  0.0000
  O2     O2        0.364592380267504    0.731458431525833    0.130414252029185  0.0000
  O2     O2        0.857481225824392    0.271304734547161    0.870667050900215  0.0000
  O3     O3        0.645129284910009    0.746042056677516    0.867319629213342  0.0000
  O2     O2        0.840411315699469    0.756889225089104    0.857644326162454  0.0000
  O3     O3        0.667929126156614    0.203735865971535    0.869228156802986  0.0000
  O2     O2        0.159594177858174    0.757217977093996    0.123957703921683  0.0000
  O2     O2        0.355526763415298    0.245925174394221    0.123695953957681  0.0000
  O3     O3        0.631984640857697    0.484924117505643    0.031887152070030  0.0000
  O2     O2        0.877934528425961    0.532433362062133    0.040081808335485  0.0000
  O2     O2        0.372888226053651    0.487584662292702    0.946259839573795  0.0000
  O2     O2        0.142134384116796    0.505828725525322    0.947383583905508  0.0000
  O3     O3        0.770228530754739    0.292674648667057    0.076336170857527  0.0000
  O2     O2        0.747382687022344    0.707110368019044    0.053667781404351  0.0000
  O2     O2        0.252216794989264    0.270973877094053    0.935363252645353  0.0000
  O2     O2        0.262829032950067    0.724088380432468    0.938313403860656  0.0000
