data_c00048.vasp
_audit_creation_method             Generated by GULP
_audit_author_name                 Salvador R. G. Balestra
_symmetry_space_group_name_H-M     'P 1             '
_symmetry_Int_Tables_number        1

loop_
_symmetry_equiv_pos_site_id
_symmetry_equiv_pos_as_xyz
_cell_length_a                       17.2302
_cell_length_b                        7.6297
_cell_length_c                       10.1475
_cell_angle_alpha                   90.0825
_cell_angle_beta                    90.8279
_cell_angle_gamma                   89.4913

loop_
_atom_site_label
_atom_site_type_symbol
_atom_site_fract_x
_atom_site_fract_y
_atom_site_fract_z
_atom_site_charge
  Ge     Ge        0.052090000000021    0.000000000000000    0.372269999999958  0.0000
  Ge     Ge        0.439819377118931    0.979105080052898    0.882177685100743  0.0000
  Ge     Ge        0.322635379080442    0.267323709110813    0.969482474912366  0.0000
  Si     Si        0.452116693056148    0.980274405749735    0.378101795938782  0.0000
  Si     Si        0.948200401940963    0.990007585361751    0.631070930723467  0.0000
  Si     Si        0.554210318928077    0.984810486782807    0.634932986883270  0.0000
  Si     Si        0.551120025938537    0.994483538917041    0.128200983823195  0.0000
  Si     Si        0.939464914484312    0.984124400298129    0.115968040158148  0.0000
  Si     Si        0.049701942450442    0.000004823912370    0.882033361545809  0.0000
  Si     Si        0.158511319357791    0.308229480317230    0.297502936206744  0.0000
  Si     Si        0.349475202953672    0.677087917608397    0.278680012980224  0.0000
  Si     Si        0.842506341783074    0.292760448901751    0.728431890780011  0.0000
  Si     Si        0.659469355650024    0.681792631967572    0.713076530112496  0.0000
  Si     Si        0.837437591900489    0.694633513184116    0.729068060567104  0.0000
  Si     Si        0.663128409875877    0.279976198635297    0.716715876568737  0.0000
  Si     Si        0.171051905594789    0.710961643988211    0.296503197672652  0.0000
  Si     Si        0.335686850855024    0.269853764603507    0.281561343401764  0.0000
  Si     Si        0.659810897560738    0.282928643135955    0.024457883603708  0.0000
  Si     Si        0.829447461946774    0.694608865085971    0.038174863449709  0.0000
  Si     Si        0.160609706355690    0.710433767058772    0.990668019698852  0.0000
  Si     Si        0.341166889353898    0.670309722867949    0.974296260715864  0.0000
  Si     Si        0.142764280440795    0.312722618636625    0.988752900057186  0.0000
  Si     Si        0.651207151683049    0.683330756524467    0.021703977733792  0.0000
  Si     Si        0.839380692831867    0.296194612776830    0.035939990981920  0.0000
  O3     O3        0.099680949553454    0.197954042751249    0.382626856359223  0.0000
  O2     O2        0.409470010287949    0.793290735170078    0.363061293994778  0.0000
  O2     O2        0.898892947732485    0.168997414034438    0.645978059778446  0.0000
  O2     O2        0.604597041071792    0.805632202236501    0.623554893617322  0.0000
  O2     O2        0.893498397564143    0.822929239510250    0.652368056906691  0.0000
  O2     O2        0.611625645251398    0.151357081911273    0.626619261786941  0.0000
  O3     O3        0.123233515282226    0.839316181318837    0.387999849958756  0.0000
  O2     O2        0.391110059782010    0.140607251575997    0.365869490077293  0.0000
  O3     O3        0.980626188825308    0.981895004528909    0.486179243993365  0.0000
  O2     O2        0.487967488437221    0.990803079432697    0.523993096522141  0.0000
  O3     O3        0.005447283933440    0.971523046892661    0.223480707644521  0.0000
  O2     O2        0.523195610357137    0.994882412624803    0.278368136589983  0.0000
  O2     O2        0.022109190923069    0.989264486881639    0.730567037583103  0.0000
  O3     O3        0.513087325791299    0.990816782247763    0.773867147665810  0.0000
  O2     O2        0.612548078102393    0.150503283312421    0.113003202385812  0.0000
  O2     O2        0.877114698692238    0.828190100706993    0.129501796083009  0.0000
  O1     O1        0.367489067451099    0.131605721835846    0.862388646051549  0.0000
  O2     O2        0.117917603975195    0.856478757831965    0.902244282638554  0.0000
  O3     O3        0.394292038740145    0.779007231630383    0.878701655499031  0.0000
  O2     O2        0.078797603302794    0.196405138793368    0.913373745837502  0.0000
  O2     O2        0.590538849741514    0.806392757798040    0.095986985751692  0.0000
  O2     O2        0.893990715194477    0.170833982428707    0.124782525490938  0.0000
  O3     O3        0.477977246312969    0.029585819270280    0.036008786085385  0.0000
  O2     O2        0.977643833234432    0.956781691310853    0.973380220783209  0.0000
  O2     O2        0.142862104698587    0.513392697798989    0.322030828291769  0.0000
  O2     O2        0.366351259927724    0.469677878404272    0.296331628019978  0.0000
  O2     O2        0.862154791068476    0.494560765929813    0.697249145538901  0.0000
  O2     O2        0.639897727007295    0.479890410452652    0.681519903161925  0.0000
  O2     O2        0.247734263339495    0.260446682934580    0.335536536734099  0.0000
  O2     O2        0.262914160531582    0.722853150905854    0.326968389967607  0.0000
  O2     O2        0.753874771248286    0.249881973065400    0.687854951346241  0.0000
  O2     O2        0.748637397423802    0.724024955294884    0.680752440432083  0.0000
  O2     O2        0.143784971649799    0.262553255872618    0.143335187334762  0.0000
  O2     O2        0.358615549002649    0.728896165383540    0.125774149938394  0.0000
  O2     O2        0.855888526167449    0.256186410552117    0.883100809817574  0.0000
  O2     O2        0.643110378573967    0.721454193821889    0.866262840566996  0.0000
  O2     O2        0.842661215870172    0.732771182141238    0.884448853546885  0.0000
  O2     O2        0.647247018241994    0.239738110487300    0.870067136261671  0.0000
  O2     O2        0.155316741161381    0.764860375214913    0.143817802073428  0.0000
  O3     O3        0.334732029720974    0.205554312000630    0.132304062484406  0.0000
  O2     O2        0.630728460487805    0.481411023255473    0.051830268960271  0.0000
  O2     O2        0.857997046247685    0.497367672936001    0.071968685501640  0.0000
  O3     O3        0.362881036053769    0.471053654112789    0.952037614443472  0.0000
  O2     O2        0.122075050601951    0.519292434540344    0.969533925202232  0.0000
  O2     O2        0.749663516089277    0.259536273012354    0.064870412867770  0.0000
  O2     O2        0.738821550813648    0.720546657623214    0.070548706456595  0.0000
  O3     O3        0.225430329078321    0.271789423526079    0.928278390370022  0.0000
  O2     O2        0.249540113373691    0.702276012169859    0.945517681387448  0.0000
