data_c00078.vasp
_audit_creation_method             Generated by GULP
_audit_author_name                 Salvador R. G. Balestra
_symmetry_space_group_name_H-M     'P 1             '
_symmetry_Int_Tables_number        1

loop_
_symmetry_equiv_pos_site_id
_symmetry_equiv_pos_as_xyz
_cell_length_a                       17.1984
_cell_length_b                        7.6290
_cell_length_c                       10.2208
_cell_angle_alpha                   89.7473
_cell_angle_beta                    89.6406
_cell_angle_gamma                   89.9421

loop_
_atom_site_label
_atom_site_type_symbol
_atom_site_fract_x
_atom_site_fract_y
_atom_site_fract_z
_atom_site_charge
  Ge     Ge        0.052090000000021    0.000000000000000    0.372269999999958  0.0000
  Ge     Ge        0.340109306701732    0.727868276216364    0.274894297882663  0.0000
  Ge     Ge        0.653839300150461    0.339669218954723    0.021724230378727  0.0000
  Si     Si        0.456874552191338    0.011807051709334    0.357051262571909  0.0000
  Si     Si        0.954325470548253    0.014996822164375    0.639838507747087  0.0000
  Si     Si        0.556831952136256    0.025560231872805    0.612504414181854  0.0000
  Si     Si        0.555533625078469    0.024109788521602    0.101372162162200  0.0000
  Si     Si        0.944807132739652    0.016287717209213    0.124919613823370  0.0000
  Si     Si        0.446402525875878    0.020781182849553    0.856825809417674  0.0000
  Si     Si        0.060162258343510    0.012300757290460    0.890905883205595  0.0000
  Si     Si        0.173357118417221    0.287429054649903    0.268369110187736  0.0000
  Si     Si        0.838448186822502    0.308234061526006    0.712898963809360  0.0000
  Si     Si        0.669283548717427    0.732075998846619    0.707345534082001  0.0000
  Si     Si        0.847826444110146    0.710274768174797    0.708530576637886  0.0000
  Si     Si        0.660017219391352    0.327467240773106    0.709763295680012  0.0000
  Si     Si        0.158222993346957    0.692935638043143    0.276550700377033  0.0000
  Si     Si        0.352963619644106    0.316502589368051    0.265547190384037  0.0000
  Si     Si        0.848589706874668    0.708406940870550    0.013968063516449  0.0000
  Si     Si        0.350661533864175    0.329828138692801    0.960661982746610  0.0000
  Si     Si        0.159695528701661    0.700709350537249    0.970163023654985  0.0000
  Si     Si        0.339156854287018    0.731593049325285    0.963396999566142  0.0000
  Si     Si        0.171097213245690    0.302231616491040    0.964054902210298  0.0000
  Si     Si        0.669347629126175    0.742330431775067    0.013673589134468  0.0000
  Si     Si        0.836228017549261    0.311691261189432    0.020447514404298  0.0000
  O3     O3        0.123987585786394    0.155019526725559    0.353312524121034  0.0000
  O3     O3        0.395077261562879    0.857872839641991    0.375123710957513  0.0000
  O2     O2        0.892875012357383    0.175435445943444    0.633164643820463  0.0000
  O2     O2        0.616159150127481    0.862608330258446    0.623721523960457  0.0000
  O2     O2        0.906570747533783    0.832557562681153    0.626368747160861  0.0000
  O2     O2        0.603080115508627    0.207978094181439    0.624037072843611  0.0000
  O3     O3        0.093469148605087    0.795184991792636    0.357016982337382  0.0000
  O2     O2        0.410646115481441    0.195083768226378    0.348165799828907  0.0000
  O3     O3        0.017894499264151    0.028242791476278    0.528821607628166  0.0000
  O2     O2        0.519546980329823    0.020644560476452    0.470440073442632  0.0000
  O3     O3        0.973127781599551    0.024345401865182    0.271934463312606  0.0000
  O2     O2        0.502591352525563    0.970576373815534    0.222964022996569  0.0000
  O2     O2        0.998001335430613    0.023585725300691    0.777730040325782  0.0000
  O2     O2        0.486861120241699    0.010688122559724    0.716312474685629  0.0000
  O3     O3        0.587338088737939    0.220218345805544    0.111417735010676  0.0000
  O2     O2        0.903711527086192    0.830014448294466    0.099365315522712  0.0000
  O2     O2        0.405723609718831    0.211135639398421    0.869994837711968  0.0000
  O2     O2        0.103195144629217    0.824085509112982    0.885807300662822  0.0000
  O2     O2        0.383266947537620    0.865308684379411    0.866699560872022  0.0000
  O2     O2        0.123267957941299    0.168231748174243    0.874633958996141  0.0000
  O2     O2        0.630593842999533    0.896910247774301    0.096336941374172  0.0000
  O2     O2        0.885431993372991    0.175308163673505    0.103944418887453  0.0000
  O2     O2        0.509663958611749    0.992286907847852    0.967969287487088  0.0000
  O2     O2        0.019066987618898    0.038167676618775    0.030730031624046  0.0000
  O2     O2        0.146302959180073    0.485556473334570    0.297275763400238  0.0000
  O3     O3        0.370998390950728    0.515146740241307    0.296953080415410  0.0000
  O2     O2        0.867158643701005    0.506313687595584    0.682989399215959  0.0000
  O2     O2        0.641424604721478    0.532614904944483    0.684320204621815  0.0000
  O2     O2        0.264263648477197    0.268314823971986    0.303558770465421  0.0000
  O3     O3        0.243989443204061    0.747310953738797    0.320669365176326  0.0000
  O2     O2        0.749199339568761    0.287371038330179    0.668164174113142  0.0000
  O2     O2        0.759517648841755    0.751556288211290    0.664860952941072  0.0000
  O2     O2        0.161906920401929    0.245424926252991    0.115116512949360  0.0000
  O3     O3        0.350800724766830    0.787181710495367    0.112375208243375  0.0000
  O2     O2        0.841480844962708    0.265173164378067    0.866978806867182  0.0000
  O2     O2        0.661502631617551    0.781212161803494    0.859225097163582  0.0000
  O2     O2        0.859075184275905    0.754878380878455    0.861201825906005  0.0000
  O3     O3        0.645334262304531    0.280056437722158    0.859945377114621  0.0000
  O2     O2        0.149287452390947    0.743315678446553    0.123186504792574  0.0000
  O2     O2        0.365858915935433    0.277808433683801    0.111210778038699  0.0000
  O3     O3        0.630587159447595    0.556925545953538    0.045165129179738  0.0000
  O2     O2        0.871122059681934    0.506632327292534    0.041868214932399  0.0000
  O2     O2        0.371476349861074    0.534247662785216    0.939835678722221  0.0000
  O2     O2        0.138361361492993    0.498577195301603    0.941512077190915  0.0000
  O3     O3        0.748293116985732    0.303283285934697    0.069386588839776  0.0000
  O2     O2        0.759345612074830    0.737608985751386    0.054955913268196  0.0000
  O2     O2        0.261413049009150    0.294472431981960    0.922764371998865  0.0000
  O2     O2        0.248206304828781    0.737797907089206    0.927794580716647  0.0000
