data_c00076.vasp
_audit_creation_method             Generated by GULP
_audit_author_name                 Salvador R. G. Balestra
_symmetry_space_group_name_H-M     'P 1             '
_symmetry_Int_Tables_number        1

loop_
_symmetry_equiv_pos_site_id
_symmetry_equiv_pos_as_xyz
_cell_length_a                       17.2352
_cell_length_b                        7.6348
_cell_length_c                       10.2362
_cell_angle_alpha                   88.7746
_cell_angle_beta                    89.8014
_cell_angle_gamma                   89.6988

loop_
_atom_site_label
_atom_site_type_symbol
_atom_site_fract_x
_atom_site_fract_y
_atom_site_fract_z
_atom_site_charge
  Ge     Ge        0.052090000000021    0.000000000000000    0.372269999999958  0.0000
  Ge     Ge        0.341333918231781    0.724369134949058    0.275828636008735  0.0000
  Ge     Ge        0.659199865692897    0.342888359935344    0.702793823301075  0.0000
  Si     Si        0.458269223549668    0.008636126521318    0.357455693710047  0.0000
  Si     Si        0.956896820954939    0.022844381081325    0.641092901692106  0.0000
  Si     Si        0.554857902283056    0.040622987167747    0.614001238793866  0.0000
  Si     Si        0.560394075533293    0.012327390877867    0.101143457442788  0.0000
  Si     Si        0.944346259221327    0.003635800845013    0.125827319058645  0.0000
  Si     Si        0.447874498276303    0.020405180183651    0.860964399841422  0.0000
  Si     Si        0.061075086386287    0.015086527915372    0.893527595552813  0.0000
  Si     Si        0.173095066073742    0.289562361027917    0.272083082786871  0.0000
  Si     Si        0.841111809956726    0.316092595605268    0.705689699601778  0.0000
  Si     Si        0.671186577440686    0.750703033699311    0.714874398442532  0.0000
  Si     Si        0.849910740907927    0.717940358322288    0.715576933416325  0.0000
  Si     Si        0.160100782471265    0.696002698057600    0.276217585064734  0.0000
  Si     Si        0.351994943151865    0.312448842909060    0.271549230509813  0.0000
  Si     Si        0.657569702075520    0.325470182329607    0.014975352072815  0.0000
  Si     Si        0.849801013517619    0.696439343942063    0.020956511527334  0.0000
  Si     Si        0.350787911370541    0.326809466572727    0.966411917860396  0.0000
  Si     Si        0.161962558557695    0.703465434451574    0.969971162732839  0.0000
  Si     Si        0.340977889907053    0.728598433733405    0.964585636519532  0.0000
  Si     Si        0.171603204388700    0.304686419449846    0.968042694711586  0.0000
  Si     Si        0.671348592570724    0.723209485812710    0.021267607325062  0.0000
  Si     Si        0.836353859423438    0.299632701622569    0.013070018752230  0.0000
  O3     O3        0.121466540409705    0.160092025717151    0.356007888338653  0.0000
  O3     O3        0.398831544185033    0.850214298292260    0.371933301386868  0.0000
  O2     O2        0.898639437402752    0.189207819006043    0.627701994826999  0.0000
  O2     O2        0.624946145222534    0.904266418520936    0.640796701388277  0.0000
  O2     O2        0.907189845466200    0.844049173942852    0.634364962071089  0.0000
  O3     O3        0.592302327133302    0.230963668218586    0.613720393004731  0.0000
  O3     O3        0.095193212293465    0.797740673340400    0.354886593871167  0.0000
  O2     O2        0.409082658584921    0.188794848176290    0.355636510881550  0.0000
  O3     O3        0.019895163157114    0.023668748110521    0.529560432254924  0.0000
  O2     O2        0.519423490331351    0.005258309235729    0.473525182903596  0.0000
  O3     O3        0.972454274883129    0.021346664602892    0.272242066988343  0.0000
  O2     O2        0.504944226237667    0.988127086795044    0.223409464340055  0.0000
  O2     O2        0.000012963936330    0.033381454932500    0.779051133164354  0.0000
  O2     O2        0.485936527935021    0.019105118509309    0.718859047553370  0.0000
  O2     O2        0.601661376315577    0.201808157087353    0.102697863886286  0.0000
  O2     O2        0.906490928716886    0.812500621380092    0.106922834072265  0.0000
  O2     O2        0.405994343157613    0.208077441186986    0.878291755764574  0.0000
  O2     O2        0.105743570914901    0.829013765113091    0.884935212764624  0.0000
  O2     O2        0.386500399305704    0.862232939482046    0.869051070010055  0.0000
  O2     O2        0.122782221077570    0.173199762487920    0.880721040311214  0.0000
  O2     O2        0.624661323198707    0.858183945392840    0.109595449896197  0.0000
  O2     O2        0.881526146064188    0.154712636943256    0.096814620582056  0.0000
  O2     O2        0.513222329199118    0.988342190977722    0.968775059809623  0.0000
  O2     O2        0.018593947133378    0.028776998302153    0.032589047270037  0.0000
  O2     O2        0.148390459358804    0.488889232874801    0.299255924591276  0.0000
  O3     O3        0.369823835584769    0.510188528961526    0.302427300873251  0.0000
  O2     O2        0.868636884467795    0.516789799808067    0.682421037364368  0.0000
  O3     O3        0.639825426126846    0.562731590212880    0.677387008707707  0.0000
  O2     O2        0.263415676965019    0.264225022361630    0.308866800519726  0.0000
  O3     O3        0.245563175202367    0.750257339228427    0.320404180911242  0.0000
  O3     O3        0.753688799158845    0.297571291357491    0.657170840049854  0.0000
  O2     O2        0.761808470116496    0.763884455503973    0.675242351652279  0.0000
  O2     O2        0.161560820153641    0.248777783660188    0.119387519169278  0.0000
  O3     O3        0.352955570342504    0.782183680061662    0.112965587682930  0.0000
  O2     O2        0.843664216419810    0.264602786375176    0.859453787026137  0.0000
  O2     O2        0.663255598334585    0.777423325031958    0.869760149945339  0.0000
  O2     O2        0.861644580168464    0.749733442672710    0.869378530132401  0.0000
  O3     O3        0.644897153468893    0.283693720911032    0.864585790416839  0.0000
  O2     O2        0.151827369053530    0.745583968137739    0.122296077830213  0.0000
  O2     O2        0.364763664926546    0.275926306776951    0.117749457788621  0.0000
  O2     O2        0.637287953206350    0.527978323422271    0.043710395638468  0.0000
  O2     O2        0.870421886704910    0.491511507639464    0.044538674825093  0.0000
  O2     O2        0.371925510784557    0.530600327476447    0.942322582151105  0.0000
  O2     O2        0.140212625431071    0.502275021076273    0.942748490080507  0.0000
  O2     O2        0.746618108778440    0.288516605921135    0.054317249033698  0.0000
  O2     O2        0.761064792402002    0.729928915067134    0.063388939427395  0.0000
  O2     O2        0.261743062137128    0.292701199855536    0.927667401396390  0.0000
  O2     O2        0.250362578571165    0.739157128413882    0.927759574078339  0.0000
