data_c00092.vasp
_audit_creation_method             Generated by GULP
_audit_author_name                 Salvador R. G. Balestra
_symmetry_space_group_name_H-M     'P 1             '
_symmetry_Int_Tables_number        1

loop_
_symmetry_equiv_pos_site_id
_symmetry_equiv_pos_as_xyz
_cell_length_a                       17.2443
_cell_length_b                        7.6373
_cell_length_c                       10.2105
_cell_angle_alpha                   89.9830
_cell_angle_beta                    90.9895
_cell_angle_gamma                   90.3519

loop_
_atom_site_label
_atom_site_type_symbol
_atom_site_fract_x
_atom_site_fract_y
_atom_site_fract_z
_atom_site_charge
  Ge     Ge        0.052090000000021    0.000000000000000    0.372269999999958  0.0000
  Ge     Ge        0.833094240415900    0.306399584702792    0.698852243162992  0.0000
  Ge     Ge        0.147927552058152    0.684780069540109    0.959796967028438  0.0000
  Si     Si        0.451318007779646    0.015789299288577    0.356930329990947  0.0000
  Si     Si        0.947291659545711    0.016381131782173    0.627782218165135  0.0000
  Si     Si        0.544354661705967    0.015515725206739    0.623938480038634  0.0000
  Si     Si        0.555548144977096    0.008446154950258    0.112088772787759  0.0000
  Si     Si        0.938178547910505    0.006654365042943    0.125338733437149  0.0000
  Si     Si        0.438657330289726    0.003702541377616    0.874206807354112  0.0000
  Si     Si        0.046959479558139    0.995659713802106    0.884611669310297  0.0000
  Si     Si        0.168071781019809    0.292126693429386    0.272531065893280  0.0000
  Si     Si        0.336423628563646    0.719875034137723    0.259285727430190  0.0000
  Si     Si        0.657699807737350    0.724762698725026    0.708046618705325  0.0000
  Si     Si        0.838168906879108    0.716765226168100    0.709031453903045  0.0000
  Si     Si        0.651340897745154    0.321492475363017    0.699199551625206  0.0000
  Si     Si        0.159170639959910    0.700757153147011    0.268639435668751  0.0000
  Si     Si        0.346302994697922    0.317969042910784    0.266851024065552  0.0000
  Si     Si        0.654596156382248    0.316816045856779    0.007266686257185  0.0000
  Si     Si        0.839901518688231    0.701016802394464    0.013802681489302  0.0000
  Si     Si        0.340762266226688    0.312840571695153    0.961621665495543  0.0000
  Si     Si        0.329360053146133    0.707753995916416    0.950665869151056  0.0000
  Si     Si        0.161174502608154    0.279079456297541    0.969753543968438  0.0000
  Si     Si        0.660222834758839    0.714859044428741    0.012883885339670  0.0000
  Si     Si        0.832982283715940    0.299038763241146    0.011119758514474  0.0000
  O3     O3        0.115697942640942    0.174848958745697    0.363677533645163  0.0000
  O2     O2        0.392237865136759    0.855122320927082    0.333933409756547  0.0000
  O3     O3        0.892762623030801    0.182832512141959    0.603535725285138  0.0000
  O2     O2        0.606696258246417    0.858680383238165    0.622821177730699  0.0000
  O2     O2        0.890616646610489    0.846856749438282    0.625009739736241  0.0000
  O2     O2        0.589208950516643    0.201579246763562    0.620983129679523  0.0000
  O3     O3        0.102328938488778    0.807070338057542    0.359182661992965  0.0000
  O2     O2        0.405719547527323    0.199288569467412    0.349382116405232  0.0000
  O3     O3        0.015366837140399    0.999626071065966    0.527697549021686  0.0000
  O2     O2        0.487830120972923    0.997676872969152    0.500252657124423  0.0000
  O3     O3        0.972125526903168    0.015885238250504    0.270326156731856  0.0000
  O2     O2        0.521354855069876    0.011199694297999    0.256053592464342  0.0000
  O2     O2        0.985965573465610    0.041313473650328    0.771663176933110  0.0000
  O2     O2        0.492962104983285    0.999732484624127    0.751336887248902  0.0000
  O2     O2        0.599003963830625    0.191951569034356    0.088812264396664  0.0000
  O2     O2        0.893276703367322    0.821656118939770    0.106597413142887  0.0000
  O2     O2        0.392590080197457    0.186692906560168    0.874438465827315  0.0000
  O3     O3        0.081441921636248    0.803031650154844    0.868803508018421  0.0000
  O2     O2        0.378476031996857    0.842417271830759    0.864575278327820  0.0000
  O2     O2        0.118995051403428    0.132264957661467    0.881797716965040  0.0000
  O2     O2        0.614725116175666    0.846790651611686    0.104845265861409  0.0000
  O2     O2        0.880809289139804    0.170051813664452    0.105111108608497  0.0000
  O2     O2        0.487223385944241    0.979871991548792    0.007348917363538  0.0000
  O2     O2        0.008465054895361    0.018543627870314    0.025583511206645  0.0000
  O2     O2        0.142904967699750    0.493904490280623    0.283688362689320  0.0000
  O2     O2        0.365203006504476    0.522778662393578    0.290429451431635  0.0000
  O3     O3        0.860599498027280    0.521043999902812    0.675894988041035  0.0000
  O2     O2        0.631938991158653    0.526018489713626    0.675243670158236  0.0000
  O2     O2        0.258929076307384    0.274721588750474    0.311253315676026  0.0000
  O2     O2        0.248741075412426    0.743495540722495    0.308559093274153  0.0000
  O3     O3        0.737022155571438    0.281687751987072    0.651660645140271  0.0000
  O2     O2        0.747806457618727    0.750914052619784    0.673638347112242  0.0000
  O2     O2        0.155377245189463    0.227890045111548    0.122938540416013  0.0000
  O2     O2        0.335815522936313    0.756615057970034    0.104293129159186  0.0000
  O3     O3        0.842443556333041    0.246242074049444    0.861351482934750  0.0000
  O2     O2        0.646166259693922    0.766333395505511    0.861363263829061  0.0000
  O2     O2        0.853296152767345    0.754600618080163    0.863363895022702  0.0000
  O2     O2        0.645889832830976    0.276334467099602    0.853316529777416  0.0000
  O3     O3        0.142652092596519    0.756439178186719    0.119523903969005  0.0000
  O2     O2        0.356078355298918    0.270644164525844    0.114329853252291  0.0000
  O2     O2        0.630701251675415    0.516766536075328    0.037131818742239  0.0000
  O2     O2        0.863237757248057    0.498412396692763    0.034019855533233  0.0000
  O2     O2        0.363355595220450    0.512859045755793    0.929204722828280  0.0000
  O3     O3        0.123273142716211    0.466670659687848    0.945252030975270  0.0000
  O2     O2        0.743203878320835    0.284939373145016    0.051326203063809  0.0000
  O2     O2        0.750772686166449    0.729836075826854    0.050279331332376  0.0000
  O2     O2        0.250466049867734    0.284016216970833    0.926921755003835  0.0000
  O3     O3        0.240877284731625    0.715568699402230    0.904397692703973  0.0000
