data_c00025.vasp
_audit_creation_method             Generated by GULP
_audit_author_name                 Salvador R. G. Balestra
_symmetry_space_group_name_H-M     'P 1             '
_symmetry_Int_Tables_number        1

loop_
_symmetry_equiv_pos_site_id
_symmetry_equiv_pos_as_xyz
_cell_length_a                       17.2072
_cell_length_b                        7.6301
_cell_length_c                       10.2473
_cell_angle_alpha                   89.7001
_cell_angle_beta                    91.3009
_cell_angle_gamma                   89.8178

loop_
_atom_site_label
_atom_site_type_symbol
_atom_site_fract_x
_atom_site_fract_y
_atom_site_fract_z
_atom_site_charge
  Ge     Ge        0.052090000000021    0.000000000000000    0.372269999999958  0.0000
  Ge     Ge        0.557647868381892    0.016982644109186    0.121888538683600  0.0000
  Ge     Ge        0.830925070001023    0.294477428265017    0.700179973114158  0.0000
  Si     Si        0.452245936093854    0.010891015306549    0.368391276470170  0.0000
  Si     Si        0.949020836787946    0.006052056015883    0.628845102509670  0.0000
  Si     Si        0.544359612233563    0.021555239925911    0.633482557711077  0.0000
  Si     Si        0.940358263373255    0.998778094659626    0.123390395182319  0.0000
  Si     Si        0.438988491414814    0.006811826562390    0.881065785216069  0.0000
  Si     Si        0.050311141239247    0.009954702923672    0.887871688258099  0.0000
  Si     Si        0.167977549944810    0.292854130044491    0.270262703265169  0.0000
  Si     Si        0.339022588459094    0.718258513751439    0.265101863344512  0.0000
  Si     Si        0.662020239704848    0.733871057125817    0.710168362180062  0.0000
  Si     Si        0.842302608452585    0.703893432434898    0.704848320008323  0.0000
  Si     Si        0.649204009580292    0.328427630519929    0.705660039699312  0.0000
  Si     Si        0.160521685724357    0.699834313843666    0.271167927951135  0.0000
  Si     Si        0.346527264399266    0.314630485626573    0.266598576830105  0.0000
  Si     Si        0.653008986132157    0.331308221532696    0.011316330763330  0.0000
  Si     Si        0.848658224192701    0.687460806679604    0.009648614582439  0.0000
  Si     Si        0.341238388994293    0.319389837400507    0.961427224819484  0.0000
  Si     Si        0.151310046164506    0.699155202153737    0.968056296508754  0.0000
  Si     Si        0.330750463340349    0.716481939194355    0.959292424125148  0.0000
  Si     Si        0.161646432411193    0.298503607291778    0.967020595451850  0.0000
  Si     Si        0.669390164037045    0.729532969437508    0.013065342785566  0.0000
  Si     Si        0.831546076879685    0.288388820475321    0.012111579405120  0.0000
  O3     O3        0.115219180398351    0.173476042670858    0.357810104059351  0.0000
  O2     O2        0.394590014118652    0.847723534998392    0.345112653678434  0.0000
  O3     O3        0.889263908920921    0.165581413445874    0.606947838443392  0.0000
  O2     O2        0.610016992932580    0.869659736157058    0.625300906416286  0.0000
  O2     O2        0.897303392422651    0.829561840109734    0.622077490690667  0.0000
  O2     O2        0.585215295342135    0.212069736382141    0.628333970456460  0.0000
  O3     O3        0.103782777054292    0.807627256096560    0.359301945106226  0.0000
  O2     O2        0.406724398881442    0.194040335611670    0.346719435591729  0.0000
  O3     O3        0.016742808278690    0.004205024883754    0.527447786955853  0.0000
  O2     O2        0.482459593030566    0.003208887175851    0.516819350322997  0.0000
  O3     O3        0.972055666419966    0.009330104373486    0.269483441940900  0.0000
  O3     O3        0.526344565049541    0.001738766103638    0.278854681315123  0.0000
  O2     O2        0.988194041946077    0.027769915301263    0.772130312141471  0.0000
  O2     O2        0.498607455004823    0.996547155819593    0.765983607629593  0.0000
  O3     O3        0.593556317941934    0.224379678810489    0.095367133555881  0.0000
  O2     O2        0.905947901399224    0.804788014852449    0.097797903860468  0.0000
  O2     O2        0.396075282033939    0.195881098635645    0.877023024687209  0.0000
  O2     O2        0.093653759423298    0.821504095914697    0.881947488367394  0.0000
  O2     O2        0.374862168094824    0.852739928755703    0.867941161404709  0.0000
  O2     O2        0.112842715942518    0.166555322959286    0.876287010445066  0.0000
  O3     O3        0.631005749500810    0.865062978108602    0.107413415478306  0.0000
  O2     O2        0.874968316410258    0.148419245507284    0.104982106846903  0.0000
  O3     O3        0.482172346962534    0.970635269335109    0.017319244643198  0.0000
  O2     O2        0.010072548280381    0.035250857705296    0.025970063109541  0.0000
  O2     O2        0.146358807212863    0.494693692914744    0.295173683811420  0.0000
  O2     O2        0.363577616032232    0.517984297558954    0.297832184887158  0.0000
  O3     O3        0.859937678795061    0.506378317505364    0.669532122753039  0.0000
  O2     O2        0.633554704080963    0.535665834491512    0.682254074255048  0.0000
  O2     O2        0.259164749212594    0.263867663229201    0.305032136740666  0.0000
  O2     O2        0.250016205996045    0.749155749345885    0.305127071841112  0.0000
  O3     O3        0.733727708647178    0.278510666572227    0.656570261540569  0.0000
  O2     O2        0.752058540852575    0.751725993496076    0.671838517199975  0.0000
  O2     O2        0.152999389239429    0.245259132688914    0.118367219697079  0.0000
  O2     O2        0.346848182673618    0.757230500665448    0.111589349219718  0.0000
  O3     O3        0.840312290172378    0.236327165939268    0.862607105640976  0.0000
  O2     O2        0.653925568484157    0.784263099425262    0.862013119359739  0.0000
  O2     O2        0.860268741846617    0.734758230386978    0.858402667378767  0.0000
  O2     O2        0.642625048320272    0.282625685117156    0.858902136099981  0.0000
  O2     O2        0.141540749505939    0.747973377779556    0.119716177584197  0.0000
  O2     O2        0.358867319662482    0.278962333439167    0.113651248269306  0.0000
  O2     O2        0.634838203948771    0.535670407318005    0.034309656754306  0.0000
  O2     O2        0.867839580066580    0.482509986734805    0.034438834023957  0.0000
  O2     O2        0.360697892744193    0.520685300241555    0.927890571573935  0.0000
  O2     O2        0.130237040257924    0.496158988073752    0.942764385024746  0.0000
  O2     O2        0.741835440923624    0.287593796419098    0.053192202227259  0.0000
  O2     O2        0.760800106213190    0.728177733767329    0.047470844138082  0.0000
  O2     O2        0.251187598629642    0.282586407381114    0.927316424264816  0.0000
  O2     O2        0.239362496180272    0.733719069348018    0.926343301377243  0.0000
