data_c00162.vasp
_audit_creation_method             Generated by GULP
_audit_author_name                 Salvador R. G. Balestra
_symmetry_space_group_name_H-M     'P 1             '
_symmetry_Int_Tables_number        1

loop_
_symmetry_equiv_pos_site_id
_symmetry_equiv_pos_as_xyz
_cell_length_a                       17.0444
_cell_length_b                        7.5819
_cell_length_c                       10.3213
_cell_angle_alpha                   89.8095
_cell_angle_beta                    90.4690
_cell_angle_gamma                   90.2804

loop_
_atom_site_label
_atom_site_type_symbol
_atom_site_fract_x
_atom_site_fract_y
_atom_site_fract_z
_atom_site_charge
  Ge     Ge        0.556730000000016    0.000000000000000    0.122129999999970  0.0000
  Ge     Ge        0.348711858307242    0.674409496831256    0.301177089439197  0.0000
  Ge     Ge        0.857946871994717    0.339927291013007    0.036434701180622  0.0000
  Si     Si        0.047741705988038    0.993341064770422    0.380292358128526  0.0000
  Si     Si        0.452112346247012    0.985086932168246    0.381819605863977  0.0000
  Si     Si        0.950504358650469    0.007356389981001    0.640357043237798  0.0000
  Si     Si        0.549330383270491    0.992601305288673    0.639033875640512  0.0000
  Si     Si        0.947312384221832    0.017181673695208    0.129314139929018  0.0000
  Si     Si        0.442569597700754    0.999111116707060    0.880807461563866  0.0000
  Si     Si        0.057782840596011    0.001039848516463    0.890922264458291  0.0000
  Si     Si        0.151718841840976    0.300394369143669    0.285436698843582  0.0000
  Si     Si        0.848506648484798    0.314969380795825    0.728415609513928  0.0000
  Si     Si        0.652676990265817    0.686870242416245    0.730383542294603  0.0000
  Si     Si        0.832633018674208    0.721215851803674    0.724433233509306  0.0000
  Si     Si        0.668957514556704    0.279869881554909    0.738114462864262  0.0000
  Si     Si        0.164452662550002    0.706436173515174    0.294603283683803  0.0000
  Si     Si        0.333618343186176    0.262154685733902    0.289628585935245  0.0000
  Si     Si        0.675131726422194    0.286078658914218    0.040365332697968  0.0000
  Si     Si        0.833334918805567    0.740515149580516    0.027495430212439  0.0000
  Si     Si        0.333365712829815    0.281351364087710    0.987508035184124  0.0000
  Si     Si        0.168894981007346    0.715482839471707    0.990779458082205  0.0000
  Si     Si        0.350475203276259    0.683890716648608    0.993798946437629  0.0000
  Si     Si        0.151688538482866    0.315958621847394    0.985271356896014  0.0000
  Si     Si        0.652576016036600    0.682492408591731    0.030480159006798  0.0000
  O2     O2        0.093582948676450    0.179113538636804    0.368212905212401  0.0000
  O3     O3        0.416511099992123    0.790353060464809    0.391855547703714  0.0000
  O2     O2        0.907642749513199    0.196807247456214    0.644033006871191  0.0000
  O2     O2        0.591568590902306    0.801806702426955    0.646061331297440  0.0000
  O2     O2        0.884274270097255    0.854315992256641    0.638991729519335  0.0000
  O2     O2        0.613816281673663    0.145173389190778    0.660631926760686  0.0000
  O2     O2        0.109447067398781    0.833259720184272    0.377641580375821  0.0000
  O2     O2        0.377210200013921    0.117173045845975    0.377213493632645  0.0000
  O2     O2        0.001443438046927    0.992228240653984    0.512843890515626  0.0000
  O2     O2        0.512219961068882    0.021851203297205    0.498188126172285  0.0000
  O2     O2        0.985080235607520    0.965754770197281    0.265797686961811  0.0000
  O3     O3        0.498163921261022    0.024230165785189    0.251572431475853  0.0000
  O2     O2        0.009913695162403    0.979034051588962    0.759509934415821  0.0000
  O2     O2        0.477180053147494    0.003383545889692    0.737323350258338  0.0000
  O3     O3        0.633472696787271    0.148060486568650    0.131804846267484  0.0000
  O2     O2        0.867327330613196    0.904524743468416    0.108280380198191  0.0000
  O2     O2        0.374093236134384    0.145163646735287    0.891591830397726  0.0000
  O2     O2        0.126721028344710    0.856440708615098    0.898436291944459  0.0000
  O2     O2        0.408369511574268    0.803197648555331    0.907851049871227  0.0000
  O2     O2        0.095007314468994    0.198018046524357    0.895294167830500  0.0000
  O3     O3        0.594185041981468    0.788921379392485    0.118724127777492  0.0000
  O3     O3        0.925614256711754    0.221432309446904    0.125142534484871  0.0000
  O3     O3        0.509211951282572    0.053764322620121    0.980723291995453  0.0000
  O2     O2        0.003892437063501    0.962202209332851    0.013390092773919  0.0000
  O2     O2        0.135787005779139    0.504875417972990    0.315616695745149  0.0000
  O3     O3        0.366236589860915    0.453837558391022    0.323852559799890  0.0000
  O2     O2        0.863306180749049    0.522663571549112    0.701907020124362  0.0000
  O2     O2        0.637174210444407    0.478094027891440    0.712702824300740  0.0000
  O2     O2        0.241173546797993    0.253195541271739    0.321103823409137  0.0000
  O3     O3        0.253502391302491    0.724250265960506    0.341688822456048  0.0000
  O2     O2        0.758635289936235    0.266426998755016    0.689600673126488  0.0000
  O2     O2        0.740940585428060    0.733425549352214    0.684689917724843  0.0000
  O2     O2        0.135433237612088    0.261785398451908    0.133965989823078  0.0000
  O3     O3        0.366225881098028    0.733239479248550    0.141872792588187  0.0000
  O3     O3        0.866318458720203    0.273744814398349    0.877339373248306  0.0000
  O2     O2        0.639781562329912    0.739450463876737    0.880111653568286  0.0000
  O2     O2        0.840753415603442    0.776345232588035    0.873996141806552  0.0000
  O2     O2        0.669746875332321    0.228385373391550    0.889362263331362  0.0000
  O2     O2        0.159734912712439    0.759588985924480    0.142660735904691  0.0000
  O2     O2        0.345914223889478    0.222705535966551    0.136782920422314  0.0000
  O2     O2        0.633843677131564    0.477031250931827    0.051394157225994  0.0000
  O3     O3        0.878509713522490    0.560642231174079    0.058392541964303  0.0000
  O2     O2        0.368991543779249    0.477803408983504    0.968955219418961  0.0000
  O2     O2        0.132604530148425    0.521639330445460    0.961937680303142  0.0000
  O3     O3        0.764141245532502    0.300104679649372    0.086864156801510  0.0000
  O2     O2        0.742894470764931    0.721406703518468    0.067796118083998  0.0000
  O2     O2        0.241718943712031    0.280010508979259    0.951315296663815  0.0000
  O2     O2        0.260358485895891    0.721167748347594    0.955649116798067  0.0000
