data_c00180.vasp
_audit_creation_method             Generated by GULP
_audit_author_name                 Salvador R. G. Balestra
_symmetry_space_group_name_H-M     'P 1             '
_symmetry_Int_Tables_number        1

loop_
_symmetry_equiv_pos_site_id
_symmetry_equiv_pos_as_xyz
_cell_length_a                       17.1313
_cell_length_b                        7.6217
_cell_length_c                       10.2628
_cell_angle_alpha                   90.4153
_cell_angle_beta                    89.8721
_cell_angle_gamma                   90.3828

loop_
_atom_site_label
_atom_site_type_symbol
_atom_site_fract_x
_atom_site_fract_y
_atom_site_fract_z
_atom_site_charge
  Ge     Ge        0.556730000000016    0.000000000000000    0.122129999999970  0.0000
  Ge     Ge        0.658118003611781    0.703174762915348    0.727859838561305  0.0000
  Ge     Ge        0.167907455241326    0.275899720022535    0.976639523331557  0.0000
  Si     Si        0.046055163504547    0.990246826849571    0.376156049816164  0.0000
  Si     Si        0.442185397010225    0.010422027350710    0.373848820491794  0.0000
  Si     Si        0.945922852264449    0.981095558513157    0.634659333161576  0.0000
  Si     Si        0.540541477122150    0.992465780588136    0.632580548605045  0.0000
  Si     Si        0.948111027457800    0.001246765943886    0.118936470944928  0.0000
  Si     Si        0.442372611951058    0.001895999071428    0.885113818565197  0.0000
  Si     Si        0.057913312906113    0.989888035420719    0.880136141935310  0.0000
  Si     Si        0.161150080515469    0.280276283726882    0.286682230211998  0.0000
  Si     Si        0.328946029917716    0.717847608456586    0.294075956192947  0.0000
  Si     Si        0.832925330290546    0.274170074607557    0.722528943711141  0.0000
  Si     Si        0.840131559406044    0.676730521219514    0.711137498250794  0.0000
  Si     Si        0.652125487433171    0.287665211503990    0.734708317167135  0.0000
  Si     Si        0.148884749392671    0.685932061341715    0.285147169463205  0.0000
  Si     Si        0.339433856710178    0.317599284227125    0.294955838655878  0.0000
  Si     Si        0.657064950944731    0.312459610881762    0.034770314263145  0.0000
  Si     Si        0.849654777105218    0.685753347857069    0.017846077984698  0.0000
  Si     Si        0.349582237363640    0.319361904669491    0.987926386839649  0.0000
  Si     Si        0.149766329218876    0.678800832962641    0.983385395519642  0.0000
  Si     Si        0.331647416955313    0.714743261015136    0.989827166318051  0.0000
  Si     Si        0.671376383178286    0.716938273924296    0.034349136738744  0.0000
  Si     Si        0.837407585306606    0.288475136466384    0.026401648003189  0.0000
  O2     O2        0.107787525182288    0.150640271839700    0.371932489687715  0.0000
  O2     O2        0.377452125845684    0.854638598344787    0.382121588756220  0.0000
  O2     O2        0.883183502875422    0.137933284548961    0.638240337544551  0.0000
  O3     O3        0.592290632969868    0.819611734342456    0.638179831196733  0.0000
  O2     O2        0.900468880785054    0.795270079855361    0.628906084408680  0.0000
  O2     O2        0.597230216707054    0.159615399787243    0.651627228775751  0.0000
  O2     O2        0.090862864019241    0.804485158229417    0.370523921715281  0.0000
  O2     O2        0.398771770790425    0.198011211828944    0.375340535513323  0.0000
  O2     O2        0.000165523959075    0.002498951280941    0.510395079882809  0.0000
  O2     O2        0.501982890123870    0.004274115355738    0.491685122599438  0.0000
  O2     O2        0.983223294418520    0.004031842271450    0.262014700825708  0.0000
  O3     O3        0.489985295911376    0.981186668553087    0.242890001577074  0.0000
  O2     O2        0.000170955054508    0.990320036020518    0.760462655385947  0.0000
  O2     O2        0.470034704340183    0.992709535168090    0.736188335262799  0.0000
  O3     O3        0.600910041052262    0.204851850021653    0.128299245776615  0.0000
  O2     O2        0.911697678172622    0.809658067382161    0.090072545439449  0.0000
  O2     O2        0.415158906411254    0.199936089701181    0.919972223951424  0.0000
  O2     O2        0.096549118481134    0.798568366426827    0.892540864470262  0.0000
  O2     O2        0.371459566239078    0.863524704951890    0.902938069127721  0.0000
  O3     O3        0.125435513108170    0.133279633334711    0.867653133510506  0.0000
  O3     O3        0.628071725915725    0.841262303558568    0.134829797840307  0.0000
  O2     O2        0.882845060272523    0.151740133695643    0.115055629829872  0.0000
  O3     O3        0.512633474384515    0.948989676452073    0.976142919951288  0.0000
  O2     O2        0.013867302323410    0.047296607462791    0.013082966662336  0.0000
  O2     O2        0.130868291607903    0.479869574591283    0.304626006892709  0.0000
  O2     O2        0.358428500158732    0.521498533805179    0.324829249887528  0.0000
  O2     O2        0.859060808358516    0.471653029049703    0.686376593634601  0.0000
  O3     O3        0.629815675558420    0.486512745483403    0.711816105973250  0.0000
  O2     O2        0.250740247860652    0.271451873917213    0.335714057901395  0.0000
  O2     O2        0.237352784712679    0.731045954254262    0.327805592209570  0.0000
  O2     O2        0.741429929162267    0.250358462887088    0.690948276490552  0.0000
  O3     O3        0.752770390978477    0.719068854189538    0.669320693336428  0.0000
  O3     O3        0.158093088471578    0.218095183172696    0.137854674058222  0.0000
  O2     O2        0.341505397546289    0.763494861637287    0.142077279561907  0.0000
  O2     O2        0.846658781731999    0.235785646216441    0.874933073416260  0.0000
  O3     O3        0.658472593476843    0.778238743240248    0.886432054028333  0.0000
  O2     O2        0.851338065822028    0.721991407115347    0.863910997452912  0.0000
  O2     O2        0.641599201150804    0.242058156329222    0.887664501403510  0.0000
  O2     O2        0.136057222984988    0.733996860278617    0.134079068909756  0.0000
  O2     O2        0.350381482868759    0.278810259482656    0.141861797982840  0.0000
  O2     O2        0.638565664134683    0.518064800324491    0.044659170667450  0.0000
  O2     O2        0.871952742125384    0.484432638879401    0.048047020370212  0.0000
  O2     O2        0.370460690127487    0.524515647285189    0.963055574464761  0.0000
  O3     O3        0.126918565246615    0.480158014461316    0.957405498279058  0.0000
  O2     O2        0.747441768653138    0.280365161685942    0.069945871058235  0.0000
  O2     O2        0.763040248006228    0.723591727145325    0.070189223616409  0.0000
  O3     O3        0.265069230786416    0.277089037673644    0.932621531523139  0.0000
  O2     O2        0.241151847489976    0.706370679871567    0.950638659226106  0.0000
