data_c00108.vasp
_audit_creation_method             Generated by GULP
_audit_author_name                 Salvador R. G. Balestra
_symmetry_space_group_name_H-M     'P 1             '
_symmetry_Int_Tables_number        1

loop_
_symmetry_equiv_pos_site_id
_symmetry_equiv_pos_as_xyz
_cell_length_a                       17.1238
_cell_length_b                        7.6365
_cell_length_c                       10.2962
_cell_angle_alpha                   90.2396
_cell_angle_beta                    90.3640
_cell_angle_gamma                   89.9928

loop_
_atom_site_label
_atom_site_type_symbol
_atom_site_fract_x
_atom_site_fract_y
_atom_site_fract_z
_atom_site_charge
  Ge     Ge        0.052090000000021    0.000000000000000    0.372269999999958  0.0000
  Ge     Ge        0.672199337575170    0.279987496100430    0.022812634505928  0.0000
  Ge     Ge        0.170981430518377    0.706861723174060    0.969272011247297  0.0000
  Si     Si        0.452585062331844    0.984571632407682    0.364870781606753  0.0000
  Si     Si        0.948780361466781    0.003753849228311    0.634261914523382  0.0000
  Si     Si        0.550502649071333    0.990360051131005    0.626183414916243  0.0000
  Si     Si        0.562414904560205    0.993863198385791    0.118612322260999  0.0000
  Si     Si        0.948921549360048    0.998461033859332    0.115279936984655  0.0000
  Si     Si        0.450311492375294    0.991941771110771    0.880178960950368  0.0000
  Si     Si        0.059179815367085    0.992352944842111    0.880784023991902  0.0000
  Si     Si        0.160226035518626    0.301254334483977    0.274241119567287  0.0000
  Si     Si        0.348642850489570    0.678915194488289    0.280348563990893  0.0000
  Si     Si        0.843148560910210    0.309799965152729    0.706767703748511  0.0000
  Si     Si        0.655721278594297    0.687867957271929    0.716435252556288  0.0000
  Si     Si        0.835623333010977    0.709594837439301    0.709139236991150  0.0000
  Si     Si        0.664739214640168    0.281928802611806    0.714334583683874  0.0000
  Si     Si        0.170076297544877    0.709871203677764    0.275115036641000  0.0000
  Si     Si        0.340385684425373    0.278228282268150    0.278522603566542  0.0000
  Si     Si        0.838466549504859    0.708675496937455    0.012568755700622  0.0000
  Si     Si        0.339700070418347    0.280160819366931    0.975643609634514  0.0000
  Si     Si        0.353809807360439    0.676707777741627    0.974463376517171  0.0000
  Si     Si        0.157480199786067    0.300458548882450    0.975753793712844  0.0000
  Si     Si        0.656832869366824    0.682900716047253    0.017390805727242  0.0000
  Si     Si        0.853958760445540    0.313712453618562    0.013193695042472  0.0000
  O3     O3        0.102580561118979    0.195190964386649    0.363786477350092  0.0000
  O2     O2        0.406589112359815    0.800589947893180    0.363611310785798  0.0000
  O2     O2        0.900900214059496    0.186115937889566    0.625367491270641  0.0000
  O2     O2        0.597727520672021    0.807517435840034    0.632410509279207  0.0000
  O2     O2        0.886948660101566    0.843499791218298    0.625996645931647  0.0000
  O2     O2        0.609871063206791    0.154009225938233    0.629910072835709  0.0000
  O3     O3        0.115998440468459    0.826292275968631    0.365061579508978  0.0000
  O2     O2        0.391154665464093    0.144635734842395    0.363596795821618  0.0000
  O3     O3        0.011036897984624    0.989653488434248    0.523244367211634  0.0000
  O2     O2        0.504889923330405    0.997364259297538    0.491792709180238  0.0000
  O3     O3        0.976807556855561    0.989577558473042    0.261832715001591  0.0000
  O2     O2        0.507994657020266    0.995761053943260    0.241827669389401  0.0000
  O2     O2        0.994417101980690    0.996404863495967    0.770512722080349  0.0000
  O2     O2        0.487022812105956    0.002995489641726    0.739049171094680  0.0000
  O3     O3        0.627562662766992    0.141615514954224    0.129416899799877  0.0000
  O2     O2        0.880231651379045    0.855981252967418    0.098235007738624  0.0000
  O2     O2        0.381440354068332    0.135578331395478    0.887302384805861  0.0000
  O3     O3        0.121290657046091    0.838947305685502    0.862332775727183  0.0000
  O2     O2        0.416700369621047    0.796926909453255    0.901947029945400  0.0000
  O2     O2        0.104896721031371    0.177337365699094    0.884124503362516  0.0000
  O2     O2        0.604071182524240    0.805410418188199    0.107449182852741  0.0000
  O2     O2        0.918374742483181    0.193912929303305    0.083068616018467  0.0000
  O2     O2        0.514314234759240    0.040827399090577    0.988277125531527  0.0000
  O2     O2        0.019526216417882    0.950204089671891    0.019560243291767  0.0000
  O2     O2        0.143446625194929    0.507638467735989    0.283465203138412  0.0000
  O2     O2        0.368586694561007    0.476151900037204    0.308744267842422  0.0000
  O2     O2        0.863668596233969    0.512053288522586    0.677054773606133  0.0000
  O2     O2        0.636121739026433    0.482729347633135    0.697201966547051  0.0000
  O2     O2        0.249558466835641    0.258780091061641    0.315195388181208  0.0000
  O2     O2        0.260277532176355    0.722716523944145    0.321603804436513  0.0000
  O2     O2        0.754078431817473    0.268257894207627    0.665035373838146  0.0000
  O2     O2        0.744299665181626    0.728145601601035    0.672673419830300  0.0000
  O2     O2        0.145682688072503    0.240102353213176    0.125096215599215  0.0000
  O2     O2        0.357952316880570    0.719026177674108    0.127957856688953  0.0000
  O2     O2        0.852726603392260    0.272857942170117    0.859544038475274  0.0000
  O2     O2        0.644471613672797    0.738472989774621    0.867252927333011  0.0000
  O2     O2        0.847077682411981    0.754297903713058    0.860962442141886  0.0000
  O3     O3        0.661351349770531    0.220412902096820    0.862217869847070  0.0000
  O3     O3        0.163011117568545    0.776707099427115    0.128135145249757  0.0000
  O2     O2        0.351567822803997    0.232503423067809    0.126822186327852  0.0000
  O3     O3        0.632377011092963    0.485958726971892    0.041295951546462  0.0000
  O2     O2        0.876202774992649    0.517616576834010    0.039089557370450  0.0000
  O2     O2        0.375247821090397    0.472707028878526    0.948557932590568  0.0000
  O3     O3        0.132948696890361    0.498476492682918    0.954647887932786  0.0000
  O3     O3        0.769130143575667    0.276122513321182    0.068171340381035  0.0000
  O2     O2        0.748152952214202    0.705648252349474    0.053052771189702  0.0000
  O2     O2        0.248506391843847    0.279617754436348    0.938975273100781  0.0000
  O3     O3        0.267583399542092    0.713518201831824    0.923234284838807  0.0000
