data_c00176.vasp
_audit_creation_method             Generated by GULP
_audit_author_name                 Salvador R. G. Balestra
_symmetry_space_group_name_H-M     'P 1             '
_symmetry_Int_Tables_number        1

loop_
_symmetry_equiv_pos_site_id
_symmetry_equiv_pos_as_xyz
_cell_length_a                       16.9540
_cell_length_b                        7.5986
_cell_length_c                       10.3644
_cell_angle_alpha                   90.3241
_cell_angle_beta                    90.2901
_cell_angle_gamma                   90.8315

loop_
_atom_site_label
_atom_site_type_symbol
_atom_site_fract_x
_atom_site_fract_y
_atom_site_fract_z
_atom_site_charge
  Ge     Ge        0.556730000000016    0.000000000000000    0.122129999999970  0.0000
  Ge     Ge        0.645698077974991    0.680333569921731    0.707597696026277  0.0000
  Ge     Ge        0.826509275472548    0.741252598452394    0.013920524741756  0.0000
  Si     Si        0.048048823663779    0.020788790046462    0.363868712017162  0.0000
  Si     Si        0.449448676256035    0.018460657958662    0.371730020097899  0.0000
  Si     Si        0.948807187885583    0.018698744165863    0.621860499113828  0.0000
  Si     Si        0.543144949767006    0.992628349667888    0.631058593931842  0.0000
  Si     Si        0.940085774739570    0.026871006545568    0.113967830645822  0.0000
  Si     Si        0.440831418529812    0.021215315621671    0.883865729178616  0.0000
  Si     Si        0.049957946560041    0.009636085672703    0.876340819141045  0.0000
  Si     Si        0.152853584128026    0.326339474505876    0.278010483559761  0.0000
  Si     Si        0.343852126488031    0.710992397609771    0.274797879138430  0.0000
  Si     Si        0.847910782730927    0.325274745332082    0.713473807636753  0.0000
  Si     Si        0.828598399158464    0.730066060123580    0.704869573965175  0.0000
  Si     Si        0.666137493187011    0.270414220886245    0.716022654800418  0.0000
  Si     Si        0.161746292476005    0.731171418309883    0.275845980327557  0.0000
  Si     Si        0.334395131519456    0.305862397663387    0.272309467803738  0.0000
  Si     Si        0.672111506743371    0.282324701252800    0.014936419322805  0.0000
  Si     Si        0.329535936295976    0.304688162278390    0.971074428537118  0.0000
  Si     Si        0.161159116746452    0.726811157147432    0.975220899866367  0.0000
  Si     Si        0.343774720962383    0.704800496726677    0.974715066799491  0.0000
  Si     Si        0.147398645573237    0.326351714774983    0.977318617113751  0.0000
  Si     Si        0.643743135854150    0.676902867553518    0.015694848871994  0.0000
  Si     Si        0.854954702462879    0.344166623686748    0.011360631342165  0.0000
  O2     O2        0.096013751896351    0.205815769809095    0.364678471899364  0.0000
  O2     O2        0.403164565478552    0.831847570986144    0.357780904939718  0.0000
  O2     O2        0.906131287899036    0.207325725500481    0.628240604498810  0.0000
  O3     O3        0.575435772038019    0.796481634039041    0.623793638113402  0.0000
  O2     O2        0.884150683733799    0.861764992133012    0.623828624612270  0.0000
  O2     O2        0.620540128989655    0.120699403436525    0.633306335413984  0.0000
  O2     O2        0.109956966989624    0.861421649001376    0.361255477019471  0.0000
  O2     O2        0.388421623754397    0.176947240678853    0.353829951959487  0.0000
  O2     O2        0.995966745111141    0.006792283924111    0.489960057586375  0.0000
  O2     O2        0.485820070192411    0.034661437275860    0.513410520107274  0.0000
  O2     O2        0.991246215853589    0.007199899002521    0.241143943374861  0.0000
  O3     O3        0.521333178965280    0.030109432292533    0.274447826264715  0.0000
  O2     O2        0.011072312131809    0.996677655428074    0.736954808562726  0.0000
  O2     O2        0.493196835190428    0.030703664002828    0.758292749766416  0.0000
  O3     O3        0.639298301429819    0.135772312151695    0.108552417593680  0.0000
  O3     O3        0.865507009467753    0.897881470828559    0.116461857077117  0.0000
  O2     O2        0.372773195210708    0.168298381173546    0.878342753575627  0.0000
  O2     O2        0.117120851583379    0.862459691684914    0.883910668320667  0.0000
  O2     O2        0.401593160106767    0.825839159864300    0.890629564139768  0.0000
  O2     O2        0.087917475777405    0.204114672392921    0.895383652449712  0.0000
  O3     O3        0.580688032582284    0.782614126109924    0.098493146835965  0.0000
  O2     O2        0.911590620657749    0.227827769125719    0.100600884695286  0.0000
  O3     O3        0.490523971255961    0.070585112594359    0.009347627968341  0.0000
  O2     O2        0.986963967330251    0.964326632481170    0.986547241726562  0.0000
  O2     O2        0.135947707695328    0.530701526671236    0.306615237280409  0.0000
  O2     O2        0.361069404200551    0.506800112667246    0.302364398235341  0.0000
  O2     O2        0.863142239936923    0.532445781207405    0.691340644324982  0.0000
  O3     O3        0.628055753243866    0.457604854529632    0.689182576151486  0.0000
  O2     O2        0.243184438499920    0.281012501132000    0.311846049347819  0.0000
  O2     O2        0.254045906823810    0.757280340101570    0.310243314298463  0.0000
  O2     O2        0.757941992796549    0.276357549242117    0.674813414994970  0.0000
  O3     O3        0.739730227848490    0.728737168393344    0.652578730483651  0.0000
  O2     O2        0.135400065905652    0.282948682726692    0.127996846034467  0.0000
  O2     O2        0.360334463311113    0.751687791373809    0.124619309269790  0.0000
  O2     O2        0.865217294023142    0.280936508524891    0.862946670000831  0.0000
  O3     O3        0.637046772655683    0.737987097012136    0.867743193597864  0.0000
  O3     O3        0.827336273222604    0.794058519162762    0.852640317234075  0.0000
  O2     O2        0.661979960745987    0.217996920932243    0.866700216734968  0.0000
  O2     O2        0.148552186646292    0.774950477942801    0.125344801665883  0.0000
  O2     O2        0.343722995711527    0.259921840630583    0.121369282848624  0.0000
  O2     O2        0.626595994037885    0.467508265729259    0.028757005420042  0.0000
  O3     O3        0.877129583772346    0.545792390355604    0.030897213562645  0.0000
  O2     O2        0.362338158161347    0.501727599591618    0.944212571613043  0.0000
  O2     O2        0.128076651765398    0.529492261473756    0.948549237422184  0.0000
  O2     O2        0.763610707508154    0.316719481125757    0.049216213425043  0.0000
  O3     O3        0.731013115168574    0.721061598392858    0.066499102777742  0.0000
  O2     O2        0.237087069585922    0.289525227425998    0.937945973182722  0.0000
  O2     O2        0.253157801264743    0.741618517356657    0.940805067326131  0.0000
