data_c00103.vasp
_audit_creation_method             Generated by GULP
_audit_author_name                 Salvador R. G. Balestra
_symmetry_space_group_name_H-M     'P 1             '
_symmetry_Int_Tables_number        1

loop_
_symmetry_equiv_pos_site_id
_symmetry_equiv_pos_as_xyz
_cell_length_a                       17.2483
_cell_length_b                        7.6470
_cell_length_c                       10.1974
_cell_angle_alpha                   90.1882
_cell_angle_beta                    90.0487
_cell_angle_gamma                   90.4609

loop_
_atom_site_label
_atom_site_type_symbol
_atom_site_fract_x
_atom_site_fract_y
_atom_site_fract_z
_atom_site_charge
  Ge     Ge        0.052090000000021    0.000000000000000    0.372269999999958  0.0000
  Ge     Ge        0.658456990607651    0.703886874523363    0.703218687793933  0.0000
  Ge     Ge        0.166813157318253    0.300903267414032    0.962280572325740  0.0000
  Si     Si        0.451613904685161    0.018590910530194    0.365499436236306  0.0000
  Si     Si        0.948985569448056    0.997426970888634    0.634525599276670  0.0000
  Si     Si        0.546784901792672    0.999384035753696    0.625904744840914  0.0000
  Si     Si        0.560486027967452    0.007523064888963    0.123519519428073  0.0000
  Si     Si        0.943986974484677    0.014333096426088    0.121136980010684  0.0000
  Si     Si        0.445938850565672    0.019148791477992    0.884097251149548  0.0000
  Si     Si        0.055238354487664    0.008609317577369    0.883855406493325  0.0000
  Si     Si        0.169604955477630    0.291608964581662    0.271182604966822  0.0000
  Si     Si        0.339605684860977    0.721736874808958    0.274094940273009  0.0000
  Si     Si        0.838908138174087    0.294470851222483    0.711532463136513  0.0000
  Si     Si        0.840246696544047    0.695484870529830    0.699304712996137  0.0000
  Si     Si        0.658513751417402    0.293992336032100    0.713412382426220  0.0000
  Si     Si        0.161234206367844    0.700917108339257    0.275586588120035  0.0000
  Si     Si        0.346305285254491    0.320904974757116    0.268019997879503  0.0000
  Si     Si        0.659717815572504    0.312192169435472    0.018164226458604  0.0000
  Si     Si        0.842335187539479    0.706404654160740    0.008529024608964  0.0000
  Si     Si        0.347623279565613    0.332097471134295    0.958278763395609  0.0000
  Si     Si        0.156069892500946    0.705817914708042    0.973855004000407  0.0000
  Si     Si        0.336318028914408    0.725893320603773    0.967765288747565  0.0000
  Si     Si        0.664077987516751    0.714794861421289    0.015297588376780  0.0000
  Si     Si        0.839386558463875    0.308491260339433    0.017273537601240  0.0000
  O3     O3        0.114916543669064    0.175251355785458    0.360685048333358  0.0000
  O2     O2        0.393008557553479    0.854021535784713    0.356511653177914  0.0000
  O2     O2        0.890533615873396    0.161986204846883    0.627446628668971  0.0000
  O3     O3        0.595476777916160    0.823993643092109    0.610165076880280  0.0000
  O2     O2        0.899163310347057    0.818205618050411    0.618239011762011  0.0000
  O2     O2        0.608379807206294    0.158757077955352    0.628409384754385  0.0000
  O3     O3        0.103171749242601    0.806710830181945    0.365194276959087  0.0000
  O2     O2        0.406797518238529    0.198957056093929    0.341930564107624  0.0000
  O3     O3        0.014234859851425    0.012897311752718    0.527626151187057  0.0000
  O2     O2        0.485658406447994    0.025088014366787    0.510686694732131  0.0000
  O3     O3        0.973887876140753    0.005065152105501    0.267894257180317  0.0000
  O2     O2        0.523273791108201    0.999655032681532    0.266651333969673  0.0000
  O2     O2        0.989370281845599    0.995069484857626    0.776134027158347  0.0000
  O2     O2        0.499650308514534    0.991992912494974    0.760533699614554  0.0000
  O2     O2        0.607648980118436    0.189765978147990    0.110488488704153  0.0000
  O2     O2        0.899149341259720    0.834890210555614    0.086278608897508  0.0000
  O2     O2        0.408397272414755    0.211763132258434    0.880706569870967  0.0000
  O2     O2        0.104161746431827    0.829847270270893    0.884235972093018  0.0000
  O2     O2        0.378507980526791    0.871773005409138    0.880781885630664  0.0000
  O3     O3        0.113240539556976    0.168649915499740    0.859784852606849  0.0000
  O2     O2        0.616673207654662    0.841824871058065    0.110506032538693  0.0000
  O2     O2        0.887781025845772    0.180774441877019    0.109046505610347  0.0000
  O2     O2        0.493424009163061    0.993395479819283    0.016597937849132  0.0000
  O2     O2        0.017266646362183    0.041670472178750    0.026403038153460  0.0000
  O2     O2        0.144931833018470    0.494209933760791    0.283534838372328  0.0000
  O2     O2        0.366496448647357    0.523090530605048    0.300849509278400  0.0000
  O2     O2        0.862751230590535    0.492945252295112    0.675224112624894  0.0000
  O3     O3        0.632972381825129    0.487848951208824    0.681587958942781  0.0000
  O2     O2        0.259478195063028    0.274313846360477    0.315672944696378  0.0000
  O2     O2        0.250151131949285    0.743260076320207    0.316771615087293  0.0000
  O2     O2        0.748670472635935    0.264902205426769    0.677658782576524  0.0000
  O3     O3        0.753418338423028    0.730175415528088    0.653178961514073  0.0000
  O3     O3        0.161521394550210    0.228326101848682    0.121884090915346  0.0000
  O2     O2        0.348110819948298    0.768358170061414    0.121105817834483  0.0000
  O2     O2        0.852550116650635    0.258310769889536    0.865520019099079  0.0000
  O3     O3        0.650816295747883    0.766834288550270    0.865527286007330  0.0000
  O2     O2        0.846829836903981    0.740793868031890    0.853645579606587  0.0000
  O2     O2        0.645547653132455    0.255611060012931    0.867847509471185  0.0000
  O2     O2        0.146988215815623    0.763438095390522    0.125901956431390  0.0000
  O2     O2        0.350953440034955    0.287660465296356    0.112664089166929  0.0000
  O2     O2        0.636213912930059    0.514266502782100    0.037850538719086  0.0000
  O2     O2        0.867415343282353    0.508030033681166    0.041562771857817  0.0000
  O2     O2        0.371131817567036    0.535000785478999    0.934651738607860  0.0000
  O3     O3        0.129536369171171    0.508838862313389    0.952001912606054  0.0000
  O2     O2        0.749458980434481    0.287238372691210    0.055086798993530  0.0000
  O2     O2        0.754257441169065    0.736049118192072    0.054187095897875  0.0000
  O3     O3        0.261453524215963    0.297406387228681    0.908180460264945  0.0000
  O2     O2        0.245806490509319    0.726365526408746    0.931731220389043  0.0000
