data_c00155.vasp
_audit_creation_method             Generated by GULP
_audit_author_name                 Salvador R. G. Balestra
_symmetry_space_group_name_H-M     'P 1             '
_symmetry_Int_Tables_number        1

loop_
_symmetry_equiv_pos_site_id
_symmetry_equiv_pos_as_xyz
_cell_length_a                       17.0298
_cell_length_b                        7.5827
_cell_length_c                       10.3175
_cell_angle_alpha                   90.1633
_cell_angle_beta                    89.4011
_cell_angle_gamma                   89.4912

loop_
_atom_site_label
_atom_site_type_symbol
_atom_site_fract_x
_atom_site_fract_y
_atom_site_fract_z
_atom_site_charge
  Ge     Ge        0.556730000000016    0.000000000000000    0.122129999999970  0.0000
  Ge     Ge        0.338072381757219    0.696936947445443    0.292940466155829  0.0000
  Ge     Ge        0.652009249726948    0.327737676877952    0.038392675036378  0.0000
  Si     Si        0.051192083273393    0.970835253527809    0.371776201389363  0.0000
  Si     Si        0.455248806057972    0.976430411684294    0.380718265794445  0.0000
  Si     Si        0.957619894129093    0.970992334048600    0.637065402534860  0.0000
  Si     Si        0.557774615030685    0.994166966325176    0.631116720407616  0.0000
  Si     Si        0.949224002616912    0.982162882903464    0.120231609296912  0.0000
  Si     Si        0.450118229252439    0.977650083317899    0.875707520054301  0.0000
  Si     Si        0.064572816096917    0.976021009043366    0.884056691707900  0.0000
  Si     Si        0.169619796169327    0.253933903324781    0.282142938781918  0.0000
  Si     Si        0.838426844906191    0.261889871353684    0.729955646992488  0.0000
  Si     Si        0.674815641102045    0.706275062510779    0.725094059098922  0.0000
  Si     Si        0.854794281982803    0.665347513554691    0.721726796416577  0.0000
  Si     Si        0.658879649451306    0.298728954351559    0.731114511846530  0.0000
  Si     Si        0.154009448574672    0.659508976050132    0.288110673125456  0.0000
  Si     Si        0.351800721207334    0.282929781551008    0.286879694749154  0.0000
  Si     Si        0.858158124621098    0.664881164913233    0.023094295943477  0.0000
  Si     Si        0.355966969697887    0.292930192702279    0.986097668066858  0.0000
  Si     Si        0.158549950771806    0.659679515014335    0.984370538777579  0.0000
  Si     Si        0.339833180640629    0.697579579004204    0.985105069480488  0.0000
  Si     Si        0.174448561615714    0.260310270032729    0.979932089211164  0.0000
  Si     Si        0.677600552526865    0.728646834661471    0.027034786147686  0.0000
  Si     Si        0.835729256793109    0.271784190800509    0.034202374139391  0.0000
  O2     O2        0.119991506338344    0.115994923412626    0.365646598625436  0.0000
  O3     O3        0.390893192499871    0.825827186973167    0.397238961105033  0.0000
  O2     O2        0.891391157230509    0.122488226310706    0.651494644590160  0.0000
  O2     O2        0.622007144315029    0.837101228307994    0.639801807452657  0.0000
  O2     O2        0.915483448722832    0.780833697919787    0.638049250179266  0.0000
  O2     O2        0.599386622703812    0.182898751297180    0.646288223569334  0.0000
  O2     O2        0.089770875276844    0.775589904304607    0.366457641861730  0.0000
  O2     O2        0.409259288700311    0.163095216044183    0.371778261431303  0.0000
  O2     O2        0.002685697931768    0.995760406492717    0.502871082330918  0.0000
  O2     O2        0.520117957349128    0.986815988873802    0.490368395614669  0.0000
  O2     O2        0.992048544787794    0.001062794687667    0.255145008869590  0.0000
  O3     O3        0.501103719052552    0.929906225152407    0.248660271084313  0.0000
  O2     O2        0.021812404237784    0.987120754893691    0.748383101046579  0.0000
  O2     O2        0.486593426055031    0.969454886902063    0.732443684998615  0.0000
  O1     O1        0.583378399880122    0.216126240061292    0.127405587757695  0.0000
  O2     O2        0.915351716731435    0.785043697371047    0.107393366094015  0.0000
  O2     O2        0.415203050717530    0.175233418720977    0.900075944296816  0.0000
  O2     O2        0.101027529904906    0.780319298786659    0.899952975593085  0.0000
  O2     O2        0.382161320089189    0.830734581491672    0.886972725958892  0.0000
  O2     O2        0.133437999005094    0.120934840419339    0.886353049746085  0.0000
  O3     O3        0.645894690727876    0.885748191507866    0.113234374012547  0.0000
  O2     O2        0.879398287343307    0.125424180205007    0.119080210146047  0.0000
  O3     O3        0.514515578229602    0.932391860907013    0.979699860198741  0.0000
  O2     O2        0.006485410139418    0.025766529315292    0.001134355230256  0.0000
  O2     O2        0.139830744070544    0.452134742041081    0.313581927065463  0.0000
  O3     O3        0.369421771510861    0.483068420219763    0.316145845068833  0.0000
  O2     O2        0.870507791575597    0.457631264049642    0.699084431469797  0.0000
  O2     O2        0.643457501820292    0.507169173902531    0.708048108991649  0.0000
  O2     O2        0.261200726237846    0.235926100865377    0.318825829131985  0.0000
  O3     O3        0.239953800486370    0.711785688914160    0.333021734560545  0.0000
  O2     O2        0.747893696253470    0.249274372955554    0.686613463155429  0.0000
  O2     O2        0.765943120388532    0.714410870045336    0.680287327569926  0.0000
  O2     O2        0.160513048722451    0.210046576391294    0.130085296216458  0.0000
  O3     O3        0.350749437704585    0.758044122818663    0.132669292303942  0.0000
  O2     O2        0.840068993991764    0.219397698746831    0.882422299070822  0.0000
  O2     O2        0.669393762356781    0.767991724764938    0.873644117055429  0.0000
  O2     O2        0.869600444295201    0.712986018425805    0.871894049084580  0.0000
  O3     O3        0.643180222445925    0.254321570346129    0.879837966291792  0.0000
  O2     O2        0.144906136585736    0.701822457814162    0.135738049140462  0.0000
  O2     O2        0.370456106445429    0.239292575512255    0.135427965092443  0.0000
  O3     O3        0.631672147785147    0.548297185195098    0.056174528931008  0.0000
  O2     O2        0.878771226006300    0.460767580587892    0.050783384069138  0.0000
  O2     O2        0.374978939206327    0.499136134410373    0.967082911831723  0.0000
  O2     O2        0.139982771911514    0.455836884616238    0.953390699903549  0.0000
  O3     O3        0.747372576835576    0.282881129788712    0.084152304612269  0.0000
  O2     O2        0.768272853426099    0.697725741633824    0.063042466200497  0.0000
  O2     O2        0.266835573114897    0.254462464468704    0.947056273734729  0.0000
  O2     O2        0.248429484897964    0.699630151297805    0.948337725150904  0.0000
