data_c00196.vasp
_audit_creation_method             Generated by GULP
_audit_author_name                 Salvador R. G. Balestra
_symmetry_space_group_name_H-M     'P 1             '
_symmetry_Int_Tables_number        1

loop_
_symmetry_equiv_pos_site_id
_symmetry_equiv_pos_as_xyz
_cell_length_a                       16.9812
_cell_length_b                        7.5755
_cell_length_c                       10.3441
_cell_angle_alpha                   90.2751
_cell_angle_beta                    90.0308
_cell_angle_gamma                   89.6953

loop_
_atom_site_label
_atom_site_type_symbol
_atom_site_fract_x
_atom_site_fract_y
_atom_site_fract_z
_atom_site_charge
  Ge     Ge        0.556730000000016    0.000000000000000    0.122129999999970  0.0000
  Ge     Ge        0.334635320686462    0.253649621218340    0.977520847347445  0.0000
  Ge     Ge        0.359650230815178    0.665416612779412    0.972200964695419  0.0000
  Si     Si        0.052357386872783    0.012886845606831    0.365255711473736  0.0000
  Si     Si        0.452421045526209    0.995551009424376    0.378436856345787  0.0000
  Si     Si        0.957460744053480    0.007147371992215    0.628217305822033  0.0000
  Si     Si        0.556425289161736    0.996720388751486    0.630480145799795  0.0000
  Si     Si        0.945997477371585    0.003764992085106    0.116449834934025  0.0000
  Si     Si        0.449555770460709    0.983097759833552    0.876100167033382  0.0000
  Si     Si        0.059384905108325    0.002733811205751    0.882329650408163  0.0000
  Si     Si        0.155300326276209    0.321228920810559    0.280800663105865  0.0000
  Si     Si        0.351756456564510    0.689391727292962    0.276151870953353  0.0000
  Si     Si        0.854159315831319    0.316192457437622    0.714216720309515  0.0000
  Si     Si        0.659032497571675    0.689054315872007    0.714827928257542  0.0000
  Si     Si        0.840166400838791    0.721012902709862    0.717371341336649  0.0000
  Si     Si        0.672506374362797    0.282242618728088    0.712785500335859  0.0000
  Si     Si        0.171320027933695    0.724167787321937    0.274708628459648  0.0000
  Si     Si        0.335016397217782    0.278284829907947    0.283097588784115  0.0000
  Si     Si        0.673584008546084    0.278976157367488    0.012599317533506  0.0000
  Si     Si        0.834957951427320    0.720338906540361    0.019246089740617  0.0000
  Si     Si        0.173832076609221    0.716502248504713    0.971805983157725  0.0000
  Si     Si        0.151465938385659    0.321633707490050    0.977650825594066  0.0000
  Si     Si        0.653197163762525    0.680570115709676    0.014565684489225  0.0000
  Si     Si        0.855285089512145    0.321783621977632    0.014711008104390  0.0000
  O2     O2        0.093179486411372    0.204984068562357    0.360296580391490  0.0000
  O2     O2        0.411025652956325    0.804371414903346    0.364089278991427  0.0000
  O2     O2        0.913689487045064    0.196907578120114    0.630506649880347  0.0000
  O2     O2        0.600642787459536    0.807246212209601    0.628282577504572  0.0000
  O2     O2        0.891736577118058    0.854393449246706    0.633527226262632  0.0000
  O2     O2        0.621446569777172    0.151897876990742    0.622970036105095  0.0000
  O2     O2        0.120052977019593    0.863970617890487    0.354881011225738  0.0000
  O2     O2        0.387474295503029    0.152353130499590    0.374071719878174  0.0000
  O2     O2        0.007118686120319    0.990099295959572    0.498534112200895  0.0000
  O2     O2        0.494917315010969    0.005478475074448    0.515583335906438  0.0000
  O2     O2        0.989174914038980    0.988510313549094    0.252113097837719  0.0000
  O3     O3        0.520007381745752    0.023878786512411    0.274112464584769  0.0000
  O2     O2        0.017423983061873    0.984300940462562    0.745873143943967  0.0000
  O2     O2        0.506960070007205    0.026795544683036    0.760045146775075  0.0000
  O3     O3        0.634889889608031    0.142448840165597    0.106834448361493  0.0000
  O2     O2        0.875123711792930    0.863196617760986    0.112402398050946  0.0000
  O3     O3        0.368091065859472    0.091819627629215    0.874447009081691  0.0000
  O2     O2        0.132052427568706    0.865286638619818    0.885618774274216  0.0000
  O3     O3        0.428066336721495    0.778224698863661    0.881544300685488  0.0000
  O2     O2        0.089128243513116    0.203227225224174    0.899824507057142  0.0000
  O3     O3        0.591204440617915    0.786442924712051    0.098952904959312  0.0000
  O2     O2        0.912946930263970    0.202760318991319    0.101229067772846  0.0000
  O3     O3        0.487596137994271    0.056057670556405    0.009220590950266  0.0000
  O2     O2        0.002884152159062    0.949825962937977    0.999426324819312  0.0000
  O2     O2        0.137641111265691    0.528702745047247    0.302352036547833  0.0000
  O2     O2        0.367511506881241    0.479041021097489    0.289145778494787  0.0000
  O2     O2        0.869602022092496    0.522113384675573    0.687110138539776  0.0000
  O2     O2        0.643374414589174    0.482578487605700    0.688205737524914  0.0000
  O2     O2        0.243872575275961    0.276812914517268    0.328492795120376  0.0000
  O2     O2        0.262299409593809    0.733495682837171    0.319403281735786  0.0000
  O2     O2        0.764621760797168    0.266384497611155    0.676807756786159  0.0000
  O2     O2        0.748559352428220    0.738092059600516    0.678269790656092  0.0000
  O2     O2        0.147121774482195    0.273300889506830    0.129650686203831  0.0000
  O3     O3        0.368706218773768    0.743122842503611    0.129796925870884  0.0000
  O2     O2        0.870749424457263    0.275573778752040    0.864563912316249  0.0000
  O2     O2        0.641587568870322    0.735236217037263    0.864498526325564  0.0000
  O2     O2        0.848199397605660    0.768192179040574    0.868946822755947  0.0000
  O2     O2        0.661391350889057    0.226302968612559    0.861996768118504  0.0000
  O2     O2        0.169601860388426    0.770381589322681    0.123088035011480  0.0000
  O3     O3        0.340141118227093    0.200790537115154    0.139586621882201  0.0000
  O2     O2        0.636571836194848    0.473660919837666    0.033806790181506  0.0000
  O2     O2        0.872284996370938    0.526896440305779    0.045255388699929  0.0000
  O1     O1        0.383048120767398    0.449283519462492    0.956613712898553  0.0000
  O2     O2        0.130702066957224    0.527484843305798    0.953652570501680  0.0000
  O2     O2        0.765519799386237    0.279852802905918    0.047912605103792  0.0000
  O2     O2        0.742879065126434    0.723640486255613    0.054200140594816  0.0000
  O3     O3        0.238560568732275    0.284821532325287    0.929514123375610  0.0000
  O3     O3        0.263152201900805    0.702069702667678    0.926447170351165  0.0000
