data_c00143.vasp
_audit_creation_method             Generated by GULP
_audit_author_name                 Salvador R. G. Balestra
_symmetry_space_group_name_H-M     'P 1             '
_symmetry_Int_Tables_number        1

loop_
_symmetry_equiv_pos_site_id
_symmetry_equiv_pos_as_xyz
_cell_length_a                       16.9809
_cell_length_b                        7.6082
_cell_length_c                       10.3288
_cell_angle_alpha                   90.3487
_cell_angle_beta                    90.5574
_cell_angle_gamma                   90.3364

loop_
_atom_site_label
_atom_site_type_symbol
_atom_site_fract_x
_atom_site_fract_y
_atom_site_fract_z
_atom_site_charge
  Ge     Ge        0.556730000000016    0.000000000000000    0.122129999999970  0.0000
  Ge     Ge        0.152431964920891    0.333471524014138    0.284675500823436  0.0000
  Ge     Ge        0.827477340109659    0.739726950269594    0.017703043775517  0.0000
  Si     Si        0.047133900946336    0.029202768368710    0.367657128431983  0.0000
  Si     Si        0.453128095142069    0.015898589872739    0.372218663083995  0.0000
  Si     Si        0.945462114031804    0.017635480127734    0.620013498403739  0.0000
  Si     Si        0.545304179229119    0.000492561154591    0.636145980377310  0.0000
  Si     Si        0.941631159698122    0.025207832845019    0.112963972907637  0.0000
  Si     Si        0.439195155872814    0.017934443697593    0.885135352016504  0.0000
  Si     Si        0.049782623192311    0.011145817488058    0.873407064968625  0.0000
  Si     Si        0.345733626687472    0.712455880723400    0.270944791575178  0.0000
  Si     Si        0.845871077179710    0.327495733704755    0.709069982263651  0.0000
  Si     Si        0.648581069027529    0.689151597732198    0.713369834583249  0.0000
  Si     Si        0.828176334357489    0.732481386089136    0.709411643285178  0.0000
  Si     Si        0.664514647367667    0.286837148430959    0.711442837048025  0.0000
  Si     Si        0.163661674315488    0.744859039754047    0.274380606390832  0.0000
  Si     Si        0.336683818049486    0.306944721067509    0.275634347976827  0.0000
  Si     Si        0.671061855086258    0.282831034088199    0.012081181522186  0.0000
  Si     Si        0.327808698562301    0.303145269432261    0.971309979314040  0.0000
  Si     Si        0.161213996799964    0.727854303324518    0.972313069938063  0.0000
  Si     Si        0.343434715480333    0.701236374411586    0.970036587799378  0.0000
  Si     Si        0.145936674380686    0.326367191867980    0.976838755935935  0.0000
  Si     Si        0.645040836750271    0.675978977997967    0.017564987319576  0.0000
  Si     Si        0.853606175050390    0.340633618036257    0.008772581526124  0.0000
  O3     O3        0.088280979613186    0.217351648857902    0.379800641614167  0.0000
  O2     O2        0.405349723139551    0.834300469168941    0.351480794489741  0.0000
  O2     O2        0.903945492586615    0.208930699381647    0.623138493925752  0.0000
  O2     O2        0.585800687388188    0.808522019826326    0.636801250812846  0.0000
  O2     O2        0.879145916704197    0.865663212389776    0.623661677017517  0.0000
  O2     O2        0.613385828224448    0.149330063381899    0.626844731219436  0.0000
  O2     O2        0.117453083649904    0.887351255161276    0.358588974556004  0.0000
  O2     O2        0.396093273160466    0.181836349451402    0.352094331505193  0.0000
  O2     O2        0.991711135521759    0.992472584202340    0.487873518222742  0.0000
  O2     O2        0.485710904699580    0.017256013157788    0.517444224951033  0.0000
  O2     O2        0.994598820268643    0.014525099216635    0.239128488510544  0.0000
  O3     O3        0.526736782734857    0.026175867818160    0.278348357256717  0.0000
  O2     O2        0.008394687025038    0.997890854901146    0.735036087097408  0.0000
  O2     O2        0.495369639632497    0.033429419959187    0.764063171993072  0.0000
  O3     O3        0.638839929457759    0.132012731030503    0.101532398239297  0.0000
  O3     O3        0.869089130372717    0.892349578605087    0.120415560110957  0.0000
  O2     O2        0.370467296253636    0.164021248750025    0.879226625997589  0.0000
  O2     O2        0.117063283593175    0.862628595611759    0.878789541316418  0.0000
  O2     O2        0.400584647084314    0.822580114182955    0.885324717606748  0.0000
  O2     O2        0.087430909324583    0.205472353828368    0.890663587319695  0.0000
  O3     O3        0.580255334488777    0.782801846258998    0.093900551019054  0.0000
  O2     O2        0.910571521017882    0.223865204213962    0.097491908809230  0.0000
  O3     O3        0.485568833314892    0.065876106186944    0.015343415707756  0.0000
  O2     O2        0.988613047215945    0.964279436514961    0.985497243758800  0.0000
  O3     O3        0.133298232247177    0.552613508738137    0.308195509017450  0.0000
  O2     O2        0.363466742916778    0.509056926724185    0.299802630649455  0.0000
  O2     O2        0.860890838803774    0.534788795021448    0.687650909741228  0.0000
  O2     O2        0.631522200721729    0.482977145767271    0.686548082088777  0.0000
  O3     O3        0.248611571759065    0.284126786207359    0.325083091444217  0.0000
  O2     O2        0.256494615880671    0.758282278904615    0.308958332171346  0.0000
  O2     O2        0.755889246845144    0.278868370790201    0.670715987416151  0.0000
  O2     O2        0.736404167421990    0.737472776072901    0.665848529974669  0.0000
  O3     O3        0.134350723178743    0.275912303552184    0.125101142916386  0.0000
  O2     O2        0.359715263319666    0.751997462764866    0.119752977108329  0.0000
  O2     O2        0.864011686631407    0.283029617446242    0.858770338018354  0.0000
  O2     O2        0.641734282226392    0.729044119805524    0.865863651206365  0.0000
  O3     O3        0.833722845832797    0.795554232523607    0.856795817711077  0.0000
  O2     O2        0.658375024140488    0.231154132028671    0.861278372950202  0.0000
  O2     O2        0.151515848676002    0.784146190369430    0.121931347852931  0.0000
  O2     O2        0.338491965616289    0.259548445622688    0.123048297975965  0.0000
  O2     O2        0.627636216745084    0.468761232660430    0.036490281450470  0.0000
  O3     O3        0.875337749996859    0.540561678020258    0.033470196267412  0.0000
  O2     O2        0.362922359804680    0.497395704737961    0.943433513791545  0.0000
  O2     O2        0.125999728958939    0.531432640105149    0.953027586185055  0.0000
  O2     O2        0.762839667598931    0.309305279790487    0.045335202143257  0.0000
  O3     O3        0.731670213514398    0.724800331839111    0.068357690971506  0.0000
  O2     O2        0.235779339387723    0.293746235165900    0.935442208773447  0.0000
  O2     O2        0.252638915882121    0.735178701334478    0.934156791418220  0.0000
