data_c00163.vasp
_audit_creation_method             Generated by GULP
_audit_author_name                 Salvador R. G. Balestra
_symmetry_space_group_name_H-M     'P 1             '
_symmetry_Int_Tables_number        1

loop_
_symmetry_equiv_pos_site_id
_symmetry_equiv_pos_as_xyz
_cell_length_a                       17.0610
_cell_length_b                        7.5887
_cell_length_c                       10.3433
_cell_angle_alpha                   89.7049
_cell_angle_beta                    90.1990
_cell_angle_gamma                   90.9837

loop_
_atom_site_label
_atom_site_type_symbol
_atom_site_fract_x
_atom_site_fract_y
_atom_site_fract_z
_atom_site_charge
  Ge     Ge        0.556730000000016    0.000000000000000    0.122129999999970  0.0000
  Ge     Ge        0.849423728797168    0.337072894600337    0.718850887518374  0.0000
  Ge     Ge        0.644856723254267    0.695021725960502    0.729494899188554  0.0000
  Si     Si        0.045589309648998    0.011930090316516    0.372992951371337  0.0000
  Si     Si        0.445714542094681    0.016033058013890    0.374862402290894  0.0000
  Si     Si        0.951800654526041    0.029494704958040    0.633955023680754  0.0000
  Si     Si        0.541306238504096    0.001119613752063    0.634418598672136  0.0000
  Si     Si        0.941683051638291    0.022951892298572    0.121674022919085  0.0000
  Si     Si        0.442084526023172    0.021446397939379    0.883498724865061  0.0000
  Si     Si        0.055488904296141    0.015471494788142    0.885882861920449  0.0000
  Si     Si        0.149795834473685    0.322109258968486    0.285768144412222  0.0000
  Si     Si        0.342037420261098    0.705886386627319    0.292082948457711  0.0000
  Si     Si        0.828126236932815    0.746217290174247    0.722597425710135  0.0000
  Si     Si        0.665880092414906    0.282262820430676    0.728235305225627  0.0000
  Si     Si        0.161405494199718    0.727474144663214    0.285341525194926  0.0000
  Si     Si        0.330891497661119    0.300797166325607    0.290020115185007  0.0000
  Si     Si        0.674420793796703    0.283712331357840    0.029962110868914  0.0000
  Si     Si        0.828021283739662    0.735406421937343    0.027568658469186  0.0000
  Si     Si        0.332084782617273    0.304278065086130    0.988767720929262  0.0000
  Si     Si        0.165373485833386    0.730463938993748    0.983792031798925  0.0000
  Si     Si        0.346241111266422    0.705270088242797    0.990735198078219  0.0000
  Si     Si        0.150792952281651    0.329780690772585    0.985069845101946  0.0000
  Si     Si        0.648125188574987    0.680660988316853    0.034745209323750  0.0000
  Si     Si        0.854115662740608    0.341418840781135    0.026054905853159  0.0000
  O2     O2        0.091099231828991    0.200509321047363    0.369374371963232  0.0000
  O2     O2        0.400787060533634    0.826070004887824    0.376763081433222  0.0000
  O3     O3        0.917316104530694    0.223342215553494    0.630789048448397  0.0000
  O3     O3        0.575629715501794    0.807114866855009    0.641907999180899  0.0000
  O2     O2        0.877157241638318    0.898032917596723    0.649241623889224  0.0000
  O2     O2        0.614193825651495    0.136335128222714    0.653732844158790  0.0000
  O2     O2        0.109043447875547    0.857345009676486    0.368024835533097  0.0000
  O2     O2        0.381003679088995    0.169340777168027    0.377349882158570  0.0000
  O2     O2        0.997952609312493    0.990063208507729    0.503851857008332  0.0000
  O2     O2        0.502761847840588    0.034259390288008    0.495952733346047  0.0000
  O2     O2        0.984441856595242    0.993853747506266    0.256562296101061  0.0000
  O3     O3        0.498017062363179    0.041193111362645    0.249561314237711  0.0000
  O2     O2        0.012356180266121    0.999636526188915    0.750476094707071  0.0000
  O2     O2        0.472918031803969    0.030173331037192    0.738146265006174  0.0000
  O3     O3        0.637324900110511    0.141763598079999    0.124312258942940  0.0000
  O2     O2        0.868721981087261    0.885868155297771    0.113845830595411  0.0000
  O2     O2        0.375550222595073    0.167861973381595    0.898625146791268  0.0000
  O2     O2        0.122171831250432    0.867811256092786    0.891901106303316  0.0000
  O2     O2        0.406365255564815    0.825770142440820    0.910497091169413  0.0000
  O2     O2        0.094583934208208    0.210167118445052    0.896397109842819  0.0000
  O3     O3        0.589896990359958    0.786002047160041    0.125759020463011  0.0000
  O2     O2        0.912201797761558    0.224064976475478    0.113588973922050  0.0000
  O3     O3        0.511433267347203    0.062523571749937    0.980861796791011  0.0000
  O2     O2        0.997392610310148    0.976026367835455    0.003268647912422  0.0000
  O2     O2        0.134026247804226    0.526681787206667    0.314551220414290  0.0000
  O2     O2        0.357752580538470    0.501100178414065    0.321407355235374  0.0000
  O3     O3        0.865262963588777    0.558911448549815    0.693321068243175  0.0000
  O3     O3        0.628543999740870    0.472277125588413    0.709108008754642  0.0000
  O2     O2        0.239083147652245    0.275645956729552    0.322003920576775  0.0000
  O2     O2        0.252461647029423    0.752123301707716    0.324848777799330  0.0000
  O3     O3        0.754094238077105    0.284816335598379    0.675333835151026  0.0000
  O3     O3        0.738491476568826    0.747374635428025    0.676979091013749  0.0000
  O2     O2        0.134072400291343    0.282573857737907    0.134732897337899  0.0000
  O2     O2        0.359910109670339    0.748164719077174    0.141788538285194  0.0000
  O3     O3        0.866912504806669    0.285892132585701    0.879067229710714  0.0000
  O3     O3        0.633094152501070    0.750072895106492    0.889759309732806  0.0000
  O2     O2        0.829097765860848    0.784507275534809    0.876372086511902  0.0000
  O2     O2        0.669575647532612    0.228523444778560    0.879662123395208  0.0000
  O2     O2        0.151868332479006    0.774552758906202    0.134139387217872  0.0000
  O2     O2        0.345032626056056    0.256844127189278    0.139407654754409  0.0000
  O2     O2        0.631353102321700    0.471658521235462    0.045378452692489  0.0000
  O2     O2        0.872466273971577    0.549473220322108    0.047366387632492  0.0000
  O2     O2        0.365018251988960    0.501914068699400    0.961922131097953  0.0000
  O2     O2        0.132766700040663    0.533506156978897    0.955139609912205  0.0000
  O2     O2        0.765161696762816    0.304610320253376    0.069141189570215  0.0000
  O2     O2        0.738492397776779    0.720368101174948    0.074194278599402  0.0000
  O2     O2        0.240730536191056    0.291445266510274    0.953108477036799  0.0000
  O2     O2        0.257266683922964    0.745321023730197    0.951290668474351  0.0000
