data_c00124.vasp
_audit_creation_method             Generated by GULP
_audit_author_name                 Salvador R. G. Balestra
_symmetry_space_group_name_H-M     'P 1             '
_symmetry_Int_Tables_number        1

loop_
_symmetry_equiv_pos_site_id
_symmetry_equiv_pos_as_xyz
_cell_length_a                       16.8668
_cell_length_b                        7.5535
_cell_length_c                       10.5013
_cell_angle_alpha                   89.2932
_cell_angle_beta                    89.8530
_cell_angle_gamma                   90.7824

loop_
_atom_site_label
_atom_site_type_symbol
_atom_site_fract_x
_atom_site_fract_y
_atom_site_fract_z
_atom_site_charge
  Ge     Ge        0.556730000000016    0.000000000000000    0.122129999999970  0.0000
  Ge     Ge        0.941048198615092    0.029884596979165    0.128895000526152  0.0000
  Ge     Ge        0.854109001957472    0.354155248196761    0.720047975719657  0.0000
  Si     Si        0.048735497341622    0.016709352751032    0.380366809479298  0.0000
  Si     Si        0.452517697930894    0.012589398022608    0.376144191163813  0.0000
  Si     Si        0.955092147565995    0.043354612943443    0.637889620197161  0.0000
  Si     Si        0.545858226005693    0.014855259613739    0.637220495360220  0.0000
  Si     Si        0.442469297680173    0.024393740869217    0.885663561976139  0.0000
  Si     Si        0.054408948139486    0.019402158837961    0.890443941976107  0.0000
  Si     Si        0.151704507808217    0.328080853536408    0.286925258586025  0.0000
  Si     Si        0.349105630630586    0.704617345099187    0.282738925246604  0.0000
  Si     Si        0.647726311089194    0.705761890333372    0.728185822901946  0.0000
  Si     Si        0.829689358393399    0.767494573865538    0.731613490116217  0.0000
  Si     Si        0.668653198655652    0.299937452515268    0.717575209713996  0.0000
  Si     Si        0.166076905492606    0.735877683591263    0.284383610767281  0.0000
  Si     Si        0.334452962276070    0.296501784231355    0.282116624863735  0.0000
  Si     Si        0.674197958491412    0.281345469304079    0.015082493187881  0.0000
  Si     Si        0.824040319298875    0.750947377032462    0.027348755336146  0.0000
  Si     Si        0.331068874572636    0.301787944205612    0.985839136211265  0.0000
  Si     Si        0.166438647737280    0.738830828991731    0.988202147619909  0.0000
  Si     Si        0.350270264072102    0.703199420576247    0.987508254214726  0.0000
  Si     Si        0.147525221368757    0.337431526328638    0.991334197818110  0.0000
  Si     Si        0.642379406399220    0.675083855074661    0.023146510605752  0.0000
  Si     Si        0.856737631793321    0.355347481889453    0.020379671509720  0.0000
  O2     O2        0.091584376432188    0.209653334231556    0.371329807161779  0.0000
  O2     O2        0.409688026763593    0.820307684809476    0.365449976188249  0.0000
  O3     O3        0.923138220498022    0.241257229545281    0.631458186844655  0.0000
  O2     O2        0.587104827710663    0.823574108800182    0.646509434191609  0.0000
  O2     O2        0.876497576874597    0.918913923132642    0.652113173155890  0.0000
  O2     O2        0.613215627243652    0.168320276439082    0.636907370155021  0.0000
  O2     O2        0.115518252661676    0.866210481918410    0.370195826159543  0.0000
  O2     O2        0.385977946564467    0.163937496687780    0.366374234616515  0.0000
  O2     O2        0.004509990834529    0.995058026844407    0.513835070779416  0.0000
  O2     O2        0.495876084599219    0.026168250011198    0.509590453418715  0.0000
  O3     O3        0.983421807214397    0.992694362950583    0.273337874005145  0.0000
  O3     O3        0.518023569312610    0.040510041005819    0.268484346879475  0.0000
  O2     O2        0.013904461989225    0.008582692681990    0.754780408565254  0.0000
  O2     O2        0.484371620566134    0.044164290308233    0.750830455378260  0.0000
  O3     O3        0.642145139018414    0.127220962340926    0.104383112453184  0.0000
  O3     O3        0.857918343954558    0.893122754239961    0.122200891592066  0.0000
  O2     O2        0.370453745472857    0.163513291171485    0.892014598101540  0.0000
  O2     O2        0.126695923031083    0.880580390103439    0.895384807623433  0.0000
  O2     O2        0.408714890187933    0.823436875071407    0.901801662263719  0.0000
  O2     O2        0.087454237492296    0.219898342216745    0.909328802899819  0.0000
  O3     O3        0.580847545993651    0.779108648656007    0.108249515822679  0.0000
  O3     O3        0.914463857134579    0.248788421742624    0.112690115001088  0.0000
  O3     O3        0.498833069379609    0.076608530394249    0.000099502180203  0.0000
  O3     O3        0.997531103384157    0.959544115293364    0.003740097881197  0.0000
  O2     O2        0.138480801140349    0.534370382210390    0.315001556745554  0.0000
  O2     O2        0.362345719372204    0.497351921146121    0.310378469226195  0.0000
  O3     O3        0.867107714673377    0.579456199505802    0.701758061422650  0.0000
  O2     O2        0.635496543030670    0.498825489871033    0.698383311254091  0.0000
  O2     O2        0.241827394882161    0.274425874424645    0.317840744414348  0.0000
  O2     O2        0.259142525146934    0.757360267955249    0.315689075763548  0.0000
  O3     O3        0.759036778283276    0.296936961382636    0.672650782435523  0.0000
  O2     O2        0.737276502233765    0.764654818920566    0.691142511244051  0.0000
  O2     O2        0.131512208801318    0.288827763684881    0.139569648681738  0.0000
  O2     O2        0.368559034954764    0.748727328894896    0.134784569994934  0.0000
  O3     O3        0.874026619792300    0.297512398124276    0.876346440218798  0.0000
  O2     O2        0.629784766894884    0.739677820826352    0.876742117712732  0.0000
  O2     O2        0.833973696432455    0.815643865445897    0.880662650260524  0.0000
  O2     O2        0.666365445451357    0.237558399245202    0.865290643227097  0.0000
  O2     O2        0.152037764136018    0.785390448987386    0.136303886482120  0.0000
  O2     O2        0.346167235296529    0.250492125265504    0.133655574058983  0.0000
  O2     O2        0.627552589598207    0.464985809639630    0.039221413894364  0.0000
  O2     O2        0.870325750953617    0.564719323356112    0.040103200900841  0.0000
  O2     O2        0.366978799469123    0.498265443564305    0.959301451830861  0.0000
  O2     O2        0.130347874944132    0.543127306924044    0.962641172849713  0.0000
  O2     O2        0.765696643480365    0.306614112174745    0.051150775576245  0.0000
  O2     O2        0.732063133202522    0.722229980784614    0.062877449821765  0.0000
  O2     O2        0.237858244730249    0.296308873419041    0.956658390595970  0.0000
  O2     O2        0.259434556720255    0.744790626851165    0.957135833156122  0.0000
