data_c00134.vasp
_audit_creation_method             Generated by GULP
_audit_author_name                 Salvador R. G. Balestra
_symmetry_space_group_name_H-M     'P 1             '
_symmetry_Int_Tables_number        1

loop_
_symmetry_equiv_pos_site_id
_symmetry_equiv_pos_as_xyz
_cell_length_a                       16.8202
_cell_length_b                        7.5655
_cell_length_c                       10.4873
_cell_angle_alpha                   89.3648
_cell_angle_beta                    89.9873
_cell_angle_gamma                   90.2511

loop_
_atom_site_label
_atom_site_type_symbol
_atom_site_fract_x
_atom_site_fract_y
_atom_site_fract_z
_atom_site_charge
  Ge     Ge        0.556730000000016    0.000000000000000    0.122129999999970  0.0000
  Ge     Ge        0.052518135884501    0.028965318544824    0.877265299239975  0.0000
  Ge     Ge        0.827718541073151    0.740714697658516    0.020979857036657  0.0000
  Si     Si        0.048566023934019    0.026650287275860    0.365810206396368  0.0000
  Si     Si        0.452161830268581    0.010179093224211    0.375589131222847  0.0000
  Si     Si        0.949011786816099    0.030047295380608    0.620864736056797  0.0000
  Si     Si        0.546146945208058    0.009029967229788    0.636385185258324  0.0000
  Si     Si        0.942322803617395    0.018256713319914    0.117580168536928  0.0000
  Si     Si        0.443449787494674    0.026488678221299    0.886009970297952  0.0000
  Si     Si        0.151278676729460    0.335782042283806    0.279110545351167  0.0000
  Si     Si        0.350002898268911    0.703293173498464    0.282124828587826  0.0000
  Si     Si        0.849793430438516    0.337565841101077    0.715469946042625  0.0000
  Si     Si        0.648344201782995    0.695912682795375    0.722900982472721  0.0000
  Si     Si        0.829869836395632    0.745374765482357    0.717902945620186  0.0000
  Si     Si        0.666513660242546    0.291065463548445    0.719340233507525  0.0000
  Si     Si        0.166301251560999    0.742972891300166    0.279912171180057  0.0000
  Si     Si        0.333908836063065    0.297582137937951    0.278325158397264  0.0000
  Si     Si        0.672592497755510    0.278959206889191    0.014619166837451  0.0000
  Si     Si        0.330276946035526    0.305087299114496    0.980796662535164  0.0000
  Si     Si        0.169678261660310    0.751142265763663    0.984557392005890  0.0000
  Si     Si        0.353817174070658    0.703425424835701    0.986953181852182  0.0000
  Si     Si        0.146630028356053    0.350019460034412    0.983157377497492  0.0000
  Si     Si        0.643150023449933    0.673060698169563    0.021753679447603  0.0000
  Si     Si        0.857656014601141    0.341068329878357    0.009272930106117  0.0000
  O2     O2        0.091965818275396    0.217535346619379    0.364921472989264  0.0000
  O2     O2        0.409937656988385    0.818302274826111    0.366569163904567  0.0000
  O2     O2        0.909004394315333    0.224456985297549    0.628305973454764  0.0000
  O2     O2        0.585293056351510    0.814642272067009    0.645470004857085  0.0000
  O2     O2        0.880577934413243    0.880321101958548    0.630839240477867  0.0000
  O2     O2        0.616126266754942    0.156324539274869    0.633717925610123  0.0000
  O2     O2        0.115313393261404    0.873128935393611    0.367682343089798  0.0000
  O2     O2        0.385397656063434    0.161471448505679    0.361044004687873  0.0000
  O2     O2        0.992661667065991    0.010282203196252    0.487138590418163  0.0000
  O2     O2        0.494044911865805    0.025680176986569    0.510786641306763  0.0000
  O2     O2        0.993615401750241    0.003248395871627    0.243555895921171  0.0000
  O3     O3        0.519808893972616    0.034637098834258    0.270635821883082  0.0000
  O3     O3        0.014894723430173    0.003643254967667    0.728153780686014  0.0000
  O2     O2        0.487358054062572    0.045112740463318    0.752659250542801  0.0000
  O3     O3        0.643085647270143    0.125579053988445    0.105971724666533  0.0000
  O3     O3        0.866477049380453    0.891305721509891    0.125218620414659  0.0000
  O2     O2        0.369792297287478    0.163152580609584    0.888617875246665  0.0000
  O3     O3        0.134546340480829    0.892637094873735    0.889886086679611  0.0000
  O2     O2        0.412914391575735    0.824035210652746    0.903049375849672  0.0000
  O3     O3        0.084532784254155    0.244195641156654    0.899692450966397  0.0000
  O3     O3        0.578555025083384    0.779453482171262    0.100163893686843  0.0000
  O2     O2        0.914996777229593    0.221171453137149    0.095734761705503  0.0000
  O3     O3        0.497934942711295    0.083013077332090    0.002517782747762  0.0000
  O3     O3        0.989298138107685    0.952256530828728    0.993768281794301  0.0000
  O2     O2        0.136854498684262    0.542317465613563    0.305761314655887  0.0000
  O2     O2        0.363891756694790    0.495907842489412    0.308445362308656  0.0000
  O2     O2        0.863257626027665    0.547098636364705    0.696798353657025  0.0000
  O2     O2        0.633097072309149    0.488908843264591    0.696216707179977  0.0000
  O2     O2        0.241276750326799    0.281991136130665    0.315419812134522  0.0000
  O2     O2        0.259578725228932    0.756732985298870    0.314360742039295  0.0000
  O2     O2        0.759287574836274    0.286057432996764    0.680569778338041  0.0000
  O2     O2        0.737103338700731    0.749612243367080    0.677832953549223  0.0000
  O2     O2        0.133895341928472    0.294087342074688    0.131338254923873  0.0000
  O2     O2        0.371418796723847    0.747833354285842    0.134947297897383  0.0000
  O2     O2        0.871469035578579    0.285771720763986    0.861525725176494  0.0000
  O2     O2        0.638534772739286    0.732970778256765    0.872827313445836  0.0000
  O3     O3        0.836411513006781    0.805428479616315    0.862955950675637  0.0000
  O2     O2        0.659243970470930    0.229133977306500    0.866319577979206  0.0000
  O2     O2        0.154685651402501    0.800669545863355    0.132683876901259  0.0000
  O2     O2        0.343522290984820    0.252624589219625    0.129200318350932  0.0000
  O2     O2        0.626952951135194    0.463832428506796    0.039314871709408  0.0000
  O3     O3        0.878182539209119    0.542069997344686    0.033403403174763  0.0000
  O2     O2        0.369787181542452    0.498250593795218    0.956988994774172  0.0000
  O2     O2        0.131354368633206    0.557820761277153    0.961808373194794  0.0000
  O2     O2        0.765419557238411    0.309994398553800    0.042168612543410  0.0000
  O3     O3        0.730817786132672    0.720505746320586    0.069349036774913  0.0000
  O2     O2        0.237426252686818    0.306171621915973    0.946256987153452  0.0000
  O2     O2        0.263276635483354    0.747174897589842    0.956037532505946  0.0000
