data_c00198.vasp
_audit_creation_method             Generated by GULP
_audit_author_name                 Salvador R. G. Balestra
_symmetry_space_group_name_H-M     'P 1             '
_symmetry_Int_Tables_number        1

loop_
_symmetry_equiv_pos_site_id
_symmetry_equiv_pos_as_xyz
_cell_length_a                       16.9369
_cell_length_b                        7.5684
_cell_length_c                       10.3730
_cell_angle_alpha                   89.2939
_cell_angle_beta                    90.7276
_cell_angle_gamma                   89.6678

loop_
_atom_site_label
_atom_site_type_symbol
_atom_site_fract_x
_atom_site_fract_y
_atom_site_fract_z
_atom_site_charge
  Ge     Ge        0.556730000000016    0.000000000000000    0.122129999999970  0.0000
  Ge     Ge        0.162875544577488    0.765385426165104    0.971097633338174  0.0000
  Ge     Ge        0.137601078916905    0.353222918752818    0.961349330541164  0.0000
  Si     Si        0.044195069778052    0.013042140320351    0.358120097289294  0.0000
  Si     Si        0.445127058367147    0.993934877679757    0.368300886260275  0.0000
  Si     Si        0.940947819858633    0.016691895545623    0.610598289890215  0.0000
  Si     Si        0.539159871048207    0.005983394723204    0.630685386853567  0.0000
  Si     Si        0.946837041314374    0.004120437604378    0.098455366960515  0.0000
  Si     Si        0.439832591005110    0.018806294737911    0.885225282220796  0.0000
  Si     Si        0.050190658875989    0.036922596392041    0.856739368041513  0.0000
  Si     Si        0.145261952704905    0.320802479546993    0.264752449310674  0.0000
  Si     Si        0.342283056939719    0.687319164838768    0.278667062230388  0.0000
  Si     Si        0.840297170149502    0.323692584335768    0.700183576862838  0.0000
  Si     Si        0.644557003101216    0.696211700881506    0.713873882214236  0.0000
  Si     Si        0.825779948351903    0.728474395717726    0.702206468905486  0.0000
  Si     Si        0.658292160690040    0.288345485950742    0.713418770859068  0.0000
  Si     Si        0.162028635207044    0.731487778338169    0.275538366005420  0.0000
  Si     Si        0.325709295867116    0.284776393685422    0.267181967010315  0.0000
  Si     Si        0.670247715063173    0.279713821699638    0.011878691360402  0.0000
  Si     Si        0.831713514106941    0.722572143202674    0.003200554356620  0.0000
  Si     Si        0.323506810370750    0.302732900917021    0.964846419195621  0.0000
  Si     Si        0.346986156954572    0.697188140038461    0.976706068889625  0.0000
  Si     Si        0.649883996496291    0.681937200549130    0.012936065279692  0.0000
  Si     Si        0.852372974999025    0.323546359102654    0.999001530067994  0.0000
  O2     O2        0.086358666893981    0.204079755871627    0.351938395736097  0.0000
  O2     O2        0.405046441502807    0.800765871277632    0.359730902334432  0.0000
  O2     O2        0.896761317908220    0.206277469621355    0.611787174763258  0.0000
  O2     O2        0.582631698217717    0.815193928144600    0.632282523417413  0.0000
  O2     O2        0.875401961843659    0.863124598873589    0.615214517483596  0.0000
  O2     O2        0.605376507033813    0.159233590519869    0.626992324056791  0.0000
  O2     O2        0.109475594838838    0.856079939298157    0.366479555659551  0.0000
  O2     O2        0.377744407848726    0.141417550961680    0.343887032731490  0.0000
  O2     O2        0.990907270863666    0.002456931661761    0.483006604128057  0.0000
  O2     O2        0.481796241413973    0.020328364534234    0.508791487734592  0.0000
  O2     O2        0.987100698665270    0.982329091578026    0.236546638181427  0.0000
  O3     O3        0.516499821429042    0.014015303051014    0.271046823544091  0.0000
  O2     O2        0.000325121719735    0.991757483917068    0.730868501282809  0.0000
  O2     O2        0.485198605563955    0.033581265606574    0.753173778848516  0.0000
  O3     O3        0.636116116123603    0.141718444413387    0.110867744950596  0.0000
  O2     O2        0.875976944614262    0.864137876351825    0.090468737749088  0.0000
  O2     O2        0.366080823598587    0.155065472236728    0.880241079636644  0.0000
  O3     O3        0.131924125757173    0.929589266884453    0.866165692521175  0.0000
  O2     O2        0.411413925186983    0.816851541227780    0.905258392339322  0.0000
  O3     O3        0.070264588596480    0.241911687067159    0.865990424666859  0.0000
  O3     O3        0.590957261924961    0.786949947820113    0.101276111704578  0.0000
  O2     O2        0.914009352946030    0.204272089742069    0.080733561232914  0.0000
  O3     O3        0.493015705588794    0.076134362682714    0.004714820187838  0.0000
  O2     O2        0.007979798635080    0.959533021729505    0.986063476754901  0.0000
  O2     O2        0.129300870791390    0.530883660118028    0.279020320604645  0.0000
  O2     O2        0.360025563038595    0.478996555678279    0.298231741736859  0.0000
  O2     O2        0.854637756731950    0.530117901568010    0.670904776016795  0.0000
  O2     O2        0.628515788010034    0.489488204149368    0.690359016337596  0.0000
  O2     O2        0.234784478010935    0.275058502363403    0.310928999637417  0.0000
  O2     O2        0.253355890931231    0.730837488628224    0.323612891301276  0.0000
  O2     O2        0.749473453952993    0.273666810979467    0.671670983285803  0.0000
  O2     O2        0.732846233520611    0.746107019592477    0.669247163703489  0.0000
  O3     O3        0.130253850061712    0.271038513620878    0.117532106292866  0.0000
  O2     O2        0.352521131816508    0.740352740962544    0.129072509543648  0.0000
  O2     O2        0.863738326575840    0.279823238421024    0.848459447102828  0.0000
  O2     O2        0.633578141751619    0.740203669526418    0.864229156734165  0.0000
  O2     O2        0.839140001480981    0.773095679366149    0.852383824310644  0.0000
  O2     O2        0.652051561303924    0.228966452349525    0.862989267840342  0.0000
  O3     O3        0.158127501140783    0.813478638777545    0.133013178046710  0.0000
  O2     O2        0.326955372940287    0.244627579650523    0.115458615859107  0.0000
  O2     O2        0.634534928133251    0.474667560919529    0.034605136645385  0.0000
  O2     O2        0.870462838579297    0.528641004107345    0.026789555988656  0.0000
  O2     O2        0.367405278427680    0.491807194664673    0.950545104813347  0.0000
  O1     O1        0.114316482233389    0.570321923370758    0.947120913943434  0.0000
  O2     O2        0.763857378078658    0.280067628219894    0.038283921665717  0.0000
  O2     O2        0.741083189097673    0.724845183244720    0.046105803240601  0.0000
  O3     O3        0.234431254082209    0.320206962352818    0.916202978905164  0.0000
  O3     O3        0.259985429696531    0.737083709128781    0.927067711815828  0.0000
