data_c00189.vasp
_audit_creation_method             Generated by GULP
_audit_author_name                 Salvador R. G. Balestra
_symmetry_space_group_name_H-M     'P 1             '
_symmetry_Int_Tables_number        1

loop_
_symmetry_equiv_pos_site_id
_symmetry_equiv_pos_as_xyz
_cell_length_a                       16.9141
_cell_length_b                        7.6000
_cell_length_c                       10.3544
_cell_angle_alpha                   90.8947
_cell_angle_beta                    89.9690
_cell_angle_gamma                   89.2940

loop_
_atom_site_label
_atom_site_type_symbol
_atom_site_fract_x
_atom_site_fract_y
_atom_site_fract_z
_atom_site_charge
  Ge     Ge        0.556730000000016    0.000000000000000    0.122129999999970  0.0000
  Ge     Ge        0.643905160285722    0.331233007654330    0.023463834615716  0.0000
  Ge     Ge        0.831428787598760    0.266648695377155    0.024455793612973  0.0000
  Si     Si        0.052163943193398    0.965939160244074    0.364861126676150  0.0000
  Si     Si        0.453325513288254    0.970568416671056    0.371774281277715  0.0000
  Si     Si        0.952115479962133    0.960130624119509    0.622468560013387  0.0000
  Si     Si        0.550142934067609    0.980281576251399    0.630174906428264  0.0000
  Si     Si        0.943172964393386    0.975735699336256    0.115916315215588  0.0000
  Si     Si        0.444958573309387    0.960305358368953    0.880831517078365  0.0000
  Si     Si        0.054050681337419    0.969300483418149    0.876542046899793  0.0000
  Si     Si        0.166072195451624    0.253780944710494    0.275043009128905  0.0000
  Si     Si        0.338464927471563    0.681662182440860    0.272574864297451  0.0000
  Si     Si        0.833472321643353    0.250631783579247    0.716695017447779  0.0000
  Si     Si        0.668430870284884    0.695746804082276    0.704372231690210  0.0000
  Si     Si        0.850441017814982    0.656735246069123    0.707345932768999  0.0000
  Si     Si        0.652690554046668    0.291534342053172    0.714956562789065  0.0000
  Si     Si        0.156465938193024    0.658100375508924    0.279507705083192  0.0000
  Si     Si        0.348735969167676    0.276448050215828    0.271149444959725  0.0000
  Si     Si        0.854299921771467    0.660078021551965    0.004074531908979  0.0000
  Si     Si        0.348377021373111    0.279130013103234    0.971187111146623  0.0000
  Si     Si        0.150887526225005    0.654578568814631    0.978466037050491  0.0000
  Si     Si        0.333659586959593    0.679284247840910    0.971167916103884  0.0000
  Si     Si        0.165289689519620    0.254493496862027    0.973836727833884  0.0000
  Si     Si        0.670507935548615    0.724342558236085    0.003856446378029  0.0000
  O2     O2        0.114887753761168    0.124450738921058    0.361237435977182  0.0000
  O2     O2        0.391133819238096    0.812440671051030    0.357455495315814  0.0000
  O2     O2        0.886202501413055    0.114141010302510    0.632764521797658  0.0000
  O2     O2        0.617253812006231    0.827008244607232    0.615759062207057  0.0000
  O2     O2        0.909703475654536    0.769807910529751    0.620413969825202  0.0000
  O2     O2        0.591946509450951    0.170121542004665    0.633968884463377  0.0000
  O2     O2        0.099684995252279    0.780465349435909    0.367493709398323  0.0000
  O2     O2        0.408978049840907    0.157439404753154    0.351240954560231  0.0000
  O2     O2        0.998794798078327    0.984512549248850    0.490524220720109  0.0000
  O2     O2        0.489408514741156    0.970550001983495    0.513339051753186  0.0000
  O2     O2        0.996947878410612    0.973850621097408    0.240853520025069  0.0000
  O3     O3        0.524732211480111    0.945769111403568    0.272757079439462  0.0000
  O2     O2        0.015214496314613    0.974830039797837    0.737083850267270  0.0000
  O2     O2        0.499040128646704    0.944233176137996    0.756422911397010  0.0000
  O1     O1        0.574573967385271    0.218535971032363    0.108432447966231  0.0000
  O2     O2        0.902458711021018    0.786686173794290    0.099015972528119  0.0000
  O2     O2        0.406224502427917    0.156733560535462    0.885363923677517  0.0000
  O2     O2        0.091002437308459    0.775028241479691    0.898056920618058  0.0000
  O2     O2        0.376282733680574    0.813664710237093    0.877255271837252  0.0000
  O2     O2        0.122185016676375    0.115518418223951    0.881725271542862  0.0000
  O3     O3        0.646232261889629    0.890804372810375    0.088686650555187  0.0000
  O3     O3        0.876804624857766    0.123945334525767    0.128861086333066  0.0000
  O3     O3        0.493599549554258    0.917398772854139    0.007469230816179  0.0000
  O2     O2        0.991756526078081    0.022665325622142    0.987120288226837  0.0000
  O2     O2        0.139803688267944    0.454259246898683    0.307917889728684  0.0000
  O2     O2        0.365683975276777    0.481303134777848    0.299884050968921  0.0000
  O2     O2        0.866562863360220    0.447620940843649    0.694370558944782  0.0000
  O2     O2        0.635697950848064    0.497932722142582    0.687627761903715  0.0000
  O2     O2        0.258841424477538    0.229258104117009    0.307175535176118  0.0000
  O2     O2        0.246941723670545    0.704745020866608    0.312418755687206  0.0000
  O2     O2        0.742199167235438    0.243597963547705    0.670295756514099  0.0000
  O2     O2        0.760609852565977    0.700206297249852    0.664150562020382  0.0000
  O2     O2        0.152342640326362    0.208790858644124    0.124024021223485  0.0000
  O2     O2        0.348230611727141    0.727160762349461    0.121836811828971  0.0000
  O3     O3        0.834918509187992    0.196402352339187    0.864733243494239  0.0000
  O2     O2        0.660672050098703    0.764326767335661    0.851692165913588  0.0000
  O2     O2        0.866633462653470    0.717595472046809    0.855362565234062  0.0000
  O3     O3        0.640709768475608    0.255303093390719    0.864537183133322  0.0000
  O2     O2        0.138749838154433    0.698147185198683    0.129839039851263  0.0000
  O2     O2        0.365647307402731    0.233495238850677    0.120470816772052  0.0000
  O3     O3        0.620191516612397    0.552266150569819    0.036142782574566  0.0000
  O3     O3        0.881900535315480    0.463916361962563    0.028828039523214  0.0000
  O2     O2        0.366969707190987    0.482072147754667    0.942973601572343  0.0000
  O2     O2        0.131824419115550    0.450735978173279    0.947841438310003  0.0000
  O1     O1        0.736845675665619    0.284134432596896    0.078745812075847  0.0000
  O2     O2        0.760673441988500    0.666145403431039    0.033183310282708  0.0000
  O2     O2        0.257548852016292    0.241258364022605    0.938801440636184  0.0000
  O2     O2        0.240888240427116    0.692300559608396    0.939402517096157  0.0000
