data_c00106.vasp
_audit_creation_method             Generated by GULP
_audit_author_name                 Salvador R. G. Balestra
_symmetry_space_group_name_H-M     'P 1             '
_symmetry_Int_Tables_number        1

loop_
_symmetry_equiv_pos_site_id
_symmetry_equiv_pos_as_xyz
_cell_length_a                       17.1208
_cell_length_b                        7.5867
_cell_length_c                       10.2702
_cell_angle_alpha                   90.3148
_cell_angle_beta                    90.5326
_cell_angle_gamma                   89.4403

loop_
_atom_site_label
_atom_site_type_symbol
_atom_site_fract_x
_atom_site_fract_y
_atom_site_fract_z
_atom_site_charge
  Ge     Ge        0.052090000000021    0.000000000000000    0.372269999999958  0.0000
  Ge     Ge        0.647190642194010    0.330107618845926    0.033298788364265  0.0000
  Ge     Ge        0.853626167126448    0.677015792185189    0.034517248105730  0.0000
  Si     Si        0.453583180356481    0.998936395116851    0.370897806212498  0.0000
  Si     Si        0.948528408004965    0.987586838189272    0.631136505564997  0.0000
  Si     Si        0.550101021428326    0.005597613200111    0.634221970081317  0.0000
  Si     Si        0.554272053058861    0.011784910747412    0.120431684473610  0.0000
  Si     Si        0.947848618015080    0.997234406277470    0.114478400787809  0.0000
  Si     Si        0.441830935466201    0.997711253735201    0.879458244231978  0.0000
  Si     Si        0.056755670945094    0.994944773804998    0.875015437837799  0.0000
  Si     Si        0.171466368040379    0.279732400362562    0.287268201586324  0.0000
  Si     Si        0.337849425777125    0.714303550221237    0.282870822124138  0.0000
  Si     Si        0.830321992775485    0.279951937083637    0.729402216772508  0.0000
  Si     Si        0.668745208605273    0.717263232992313    0.725201675501888  0.0000
  Si     Si        0.847127973460860    0.684083818602413    0.724491962281264  0.0000
  Si     Si        0.652817895789341    0.311350237324301    0.724154624352781  0.0000
  Si     Si        0.157501651365743    0.687354744569321    0.287657227383836  0.0000
  Si     Si        0.351721092535395    0.309596027771939    0.281312089574456  0.0000
  Si     Si        0.346857166540751    0.311663660890272    0.978759229296771  0.0000
  Si     Si        0.152554919851952    0.684834066876763    0.986339294948487  0.0000
  Si     Si        0.333201608467703    0.712053618183335    0.979232250239219  0.0000
  Si     Si        0.166065258872311    0.280971645185661    0.985480730543772  0.0000
  Si     Si        0.670607290057303    0.730499822684915    0.031014695542513  0.0000
  Si     Si        0.828958753678191    0.278512251362944    0.036888221809551  0.0000
  O3     O3        0.124715250514442    0.157068939038932    0.382431100931784  0.0000
  O2     O2        0.387920253383953    0.847796867836776    0.370319350701156  0.0000
  O2     O2        0.884780189123555    0.140558552011265    0.656184956459629  0.0000
  O2     O2        0.615333069368069    0.851787177369443    0.643662183896268  0.0000
  O2     O2        0.907070566998073    0.797623682984967    0.639340931972268  0.0000
  O2     O2        0.591960804330655    0.195173793540665    0.640048467041885  0.0000
  O3     O3        0.098580816461831    0.796841777690951    0.375496859987372  0.0000
  O2     O2        0.411630184435177    0.190371587169897    0.364192410870015  0.0000
  O3     O3        0.982383185496666    0.012625947927820    0.489372064268040  0.0000
  O2     O2        0.505377082177879    0.986633741446718    0.498975536821092  0.0000
  O3     O3        0.004217458842708    0.049601589638152    0.229389986997521  0.0000
  O2     O2        0.510549158356586    0.964152674419301    0.251171589770755  0.0000
  O2     O2        0.022353973574976    0.001348389233460    0.729673621763598  0.0000
  O2     O2        0.485411827806185    0.983019588288525    0.744158380177675  0.0000
  O3     O3        0.580042480123301    0.213296166994115    0.120595996825632  0.0000
  O3     O3        0.919475781223063    0.797024461650432    0.125218751249538  0.0000
  O2     O2        0.401946834326734    0.191080304620122    0.889282160126954  0.0000
  O2     O2        0.095172325713705    0.801961233224775    0.897552845481259  0.0000
  O2     O2        0.375656636277237    0.848245823911382    0.885830068273299  0.0000
  O2     O2        0.121212356590880    0.147141321373458    0.890792359610387  0.0000
  O2     O2        0.632489211669589    0.892648116840411    0.109272302483861  0.0000
  O2     O2        0.869632915516241    0.118107324376963    0.113167324968867  0.0000
  O2     O2        0.501297686387806    0.962410105195764    0.996629829107882  0.0000
  O2     O2        0.988208377141372    0.031117263693903    0.975847709829833  0.0000
  O2     O2        0.144165682295007    0.481097235337219    0.309620128175116  0.0000
  O2     O2        0.367013537867626    0.515042605132721    0.311081710796370  0.0000
  O2     O2        0.863892576680774    0.475425848694237    0.704554638287585  0.0000
  O2     O2        0.636021206736666    0.519785514246378    0.704857284110822  0.0000
  O2     O2        0.263576007093534    0.260935744873099    0.318145043631945  0.0000
  O2     O2        0.247164722042426    0.736101932137223    0.320659018243013  0.0000
  O2     O2        0.741118719099459    0.267361907448847    0.676949126601120  0.0000
  O2     O2        0.758326382210267    0.726911908380444    0.677739458292140  0.0000
  O2     O2        0.156001824503925    0.225516212763256    0.135954155442490  0.0000
  O2     O2        0.347838482300534    0.759891059359979    0.130618234910099  0.0000
  O2     O2        0.826786038287844    0.240607359847762    0.882026138528331  0.0000
  O2     O2        0.669148719747928    0.770476844171535    0.876509309341719  0.0000
  O3     O3        0.861542322194386    0.736852417293391    0.873267763969495  0.0000
  O3     O3        0.640086893229582    0.261453471685555    0.873187295053465  0.0000
  O2     O2        0.138786215566336    0.737840274504418    0.136945511917190  0.0000
  O2     O2        0.365972053501135    0.267675466563331    0.129135564105621  0.0000
  O3     O3        0.624653707354268    0.550120671092944    0.052955257046380  0.0000
  O3     O3        0.875734676242074    0.458149490039464    0.060157423345430  0.0000
  O2     O2        0.365402065917064    0.515259950166961    0.949527702767328  0.0000
  O2     O2        0.133019086556540    0.479207376619220    0.963548233963818  0.0000
  O3     O3        0.741688734269713    0.297384756902671    0.087765808750729  0.0000
  O3     O3        0.758385167281152    0.710512851242158    0.081450217591683  0.0000
  O2     O2        0.256738216904937    0.272022847247611    0.947440253028677  0.0000
  O2     O2        0.241339221915698    0.722461463413778    0.947216343892043  0.0000
