data_c00250.vasp
_audit_creation_method             Generated by GULP
_audit_author_name                 Salvador R. G. Balestra
_symmetry_space_group_name_H-M     'P 1             '
_symmetry_Int_Tables_number        1

loop_
_symmetry_equiv_pos_site_id
_symmetry_equiv_pos_as_xyz
_cell_length_a                       17.0638
_cell_length_b                        7.6033
_cell_length_c                       10.2781
_cell_angle_alpha                   90.0228
_cell_angle_beta                    89.8582
_cell_angle_gamma                   89.8301

loop_
_atom_site_label
_atom_site_type_symbol
_atom_site_fract_x
_atom_site_fract_y
_atom_site_fract_z
_atom_site_charge
  Ge     Ge        0.160189999999943    0.293909999999983    0.273440000000051  0.0000
  Ge     Ge        0.341069199070416    0.246609316098136    0.959837532462314  0.0000
  Ge     Ge        0.656735659160713    0.636917908055217    0.006351087446212  0.0000
  Si     Si        0.055962945390345    0.982234212525174    0.351293126723223  0.0000
  Si     Si        0.460261415870629    0.969125052435349    0.354748745257036  0.0000
  Si     Si        0.961461948388926    0.965087379200629    0.612843477511027  0.0000
  Si     Si        0.562481210659155    0.956115505537711    0.610623898929922  0.0000
  Si     Si        0.560324803178430    0.955263726617286    0.101912485177562  0.0000
  Si     Si        0.952566264013234    0.956317102488504    0.097052459425168  0.0000
  Si     Si        0.452713267826964    0.961402059731123    0.859469047453134  0.0000
  Si     Si        0.067086790459050    0.972320207597404    0.861172528202022  0.0000
  Si     Si        0.356876379185236    0.663886399903952    0.258823942345586  0.0000
  Si     Si        0.856801330303922    0.270615011809458    0.699477736123259  0.0000
  Si     Si        0.665422699532400    0.650988358631798    0.696506306401601  0.0000
  Si     Si        0.844984093749931    0.674172733238427    0.707149303800648  0.0000
  Si     Si        0.676432253231173    0.245651517044482    0.694612071277768  0.0000
  Si     Si        0.176283164882529    0.702977967821295    0.262272907005344  0.0000
  Si     Si        0.342635502717080    0.256547810303692    0.270178911176183  0.0000
  Si     Si        0.674542235664869    0.232107816753732    0.998612011884547  0.0000
  Si     Si        0.840402252292621    0.666584302215726    0.012592451834859  0.0000
  Si     Si        0.177850010015093    0.686388106732150    0.958777590110759  0.0000
  Si     Si        0.359734294083379    0.649211434552882    0.958238805777565  0.0000
  Si     Si        0.158682082695170    0.289054064287303    0.961354136425199  0.0000
  Si     Si        0.855732357755000    0.269153737024576    0.001930257077646  0.0000
  O3     O3        0.090497848311947    0.176857780354409    0.357979481339067  0.0000
  O2     O2        0.415501752090054    0.783031051519922    0.342515512263875  0.0000
  O2     O2        0.916031464434177    0.151938023796442    0.615364444128937  0.0000
  O2     O2        0.608999593241939    0.770936471274355    0.607370648342742  0.0000
  O2     O2        0.899334173429721    0.808590791562683    0.629840590009529  0.0000
  O2     O2        0.624941024230576    0.115447163626542    0.607007220566331  0.0000
  O2     O2        0.131447083398157    0.853247787056187    0.342814804402334  0.0000
  O2     O2        0.398927210684577    0.130330950590404    0.354238748247665  0.0000
  O2     O2        0.003528337205258    0.939733903044420    0.475769306512747  0.0000
  O2     O2        0.505661105310103    0.969975034496745    0.489367215816909  0.0000
  O2     O2        0.001920684189091    0.949388913675696    0.227041268514719  0.0000
  O2     O2        0.524029171876004    0.995404873421037    0.241801082386129  0.0000
  O2     O2        0.028350471396663    0.956989350530878    0.721102588503407  0.0000
  O2     O2        0.509938952070756    0.971742346839184    0.738641791979783  0.0000
  O2     O2        0.637450582792549    0.074832025637733    0.081387697245511  0.0000
  O2     O2        0.888186438939912    0.802520026662892    0.100696527681199  0.0000
  O3     O3        0.384326758139489    0.103377969961064    0.852720601813693  0.0000
  O2     O2        0.138310071051917    0.832095923266102    0.867137770557868  0.0000
  O2     O2        0.415097738884590    0.767047532257580    0.867145483408324  0.0000
  O2     O2        0.097327408929764    0.171113061240396    0.880539552445401  0.0000
  O3     O3        0.587505595888142    0.754434183233981    0.091741836919540  0.0000
  O2     O2        0.911058707271106    0.146811775429443    0.088915840444973  0.0000
  O2     O2        0.498128020022999    0.010272572135362    0.992151176280051  0.0000
  O2     O2        0.006094922026791    0.918996467178802    0.972363506007900  0.0000
  O3     O3        0.140636162513427    0.514555502114357    0.294553772796083  0.0000
  O2     O2        0.374339492623521    0.457461667835459    0.279178688633683  0.0000
  O2     O2        0.875346913320741    0.476302299217839    0.678368926488873  0.0000
  O2     O2        0.647387679309979    0.445344008624083    0.671654316893616  0.0000
  O3     O3        0.254837177081879    0.250836550327647    0.324440696276209  0.0000
  O2     O2        0.267893030780526    0.706106331127359    0.301755966889153  0.0000
  O2     O2        0.767881625073247    0.228976557776258    0.656177693690508  0.0000
  O2     O2        0.755540219273951    0.692566907349708    0.658958234066306  0.0000
  O3     O3        0.152659221059486    0.236858672323250    0.111802025894472  0.0000
  O2     O2        0.370036053766101    0.712998975370934    0.107627940099841  0.0000
  O2     O2        0.869248954605618    0.221240650846276    0.850649553422730  0.0000
  O3     O3        0.649079605102430    0.698201311359700    0.845512284483591  0.0000
  O2     O2        0.846078378144650    0.717662029656792    0.860293085860438  0.0000
  O2     O2        0.666254829785519    0.192453617514246    0.845018670960170  0.0000
  O2     O2        0.169770695104994    0.744931630522318    0.108683670011720  0.0000
  O3     O3        0.343261624075144    0.189731030205229    0.121855120814224  0.0000
  O3     O3        0.634545486116084    0.417578012203326    0.028632122209245  0.0000
  O2     O2        0.876903631675640    0.471363946776712    0.031400289405755  0.0000
  O3     O3        0.384963445635704    0.449971519306199    0.941757524910511  0.0000
  O2     O2        0.137389991017852    0.495812495112889    0.941180238861348  0.0000
  O2     O2        0.765447156451074    0.238569386405202    0.038405351192833  0.0000
  O3     O3        0.751258628605644    0.672245899428417    0.058225486689812  0.0000
  O3     O3        0.245236961619971    0.255161402639803    0.909347702675814  0.0000
  O2     O2        0.268819192963332    0.672816715216562    0.918627072595129  0.0000
