data_c00264.vasp
_audit_creation_method             Generated by GULP
_audit_author_name                 Salvador R. G. Balestra
_symmetry_space_group_name_H-M     'P 1             '
_symmetry_Int_Tables_number        1

loop_
_symmetry_equiv_pos_site_id
_symmetry_equiv_pos_as_xyz
_cell_length_a                       17.0514
_cell_length_b                        7.5980
_cell_length_c                       10.3137
_cell_angle_alpha                   89.7008
_cell_angle_beta                    89.7181
_cell_angle_gamma                   90.5548

loop_
_atom_site_label
_atom_site_type_symbol
_atom_site_fract_x
_atom_site_fract_y
_atom_site_fract_z
_atom_site_charge
  Ge     Ge        0.660660000000007    0.294089999999983    0.017439999999965  0.0000
  Ge     Ge        0.819913293367269    0.776076666575071    0.023217379839395  0.0000
  Ge     Ge        0.632609824625761    0.710030566846140    0.024422766900254  0.0000
  Si     Si        0.040819388270413    0.057264199954602    0.369096442872166  0.0000
  Si     Si        0.437502774793794    0.052676992369873    0.368365191667710  0.0000
  Si     Si        0.940371060956012    0.064249961394208    0.627584074327014  0.0000
  Si     Si        0.541256493739683    0.042541170180723    0.622230962475485  0.0000
  Si     Si        0.541459441544986    0.021929241026215    0.119044853732081  0.0000
  Si     Si        0.936944876348800    0.059074993971706    0.117324090744238  0.0000
  Si     Si        0.436971275918343    0.056188736036116    0.875095272792885  0.0000
  Si     Si        0.046795873148532    0.043472375786186    0.878045796466232  0.0000
  Si     Si        0.146158283073750    0.359653092149819    0.278930964139469  0.0000
  Si     Si        0.333304965886156    0.749128654175825    0.276512294203137  0.0000
  Si     Si        0.838616121066198    0.374657048459699    0.709415814531835  0.0000
  Si     Si        0.640746972094981    0.732101843111373    0.716554823330080  0.0000
  Si     Si        0.824379841230935    0.774307196222722    0.716408006383976  0.0000
  Si     Si        0.657172167343994    0.330476143721615    0.707835460582411  0.0000
  Si     Si        0.151820246085170    0.764056050836253    0.273022287287355  0.0000
  Si     Si        0.327592278764327    0.344499062768579    0.278511816247554  0.0000
  Si     Si        0.327484597058296    0.342226627419695    0.976868754180893  0.0000
  Si     Si        0.155553815137060    0.757542846966684    0.971113177380612  0.0000
  Si     Si        0.337433484495965    0.744263789212390    0.975503847984950  0.0000
  Si     Si        0.145423683862027    0.356039876029491    0.977614622780586  0.0000
  Si     Si        0.841946309758105    0.365939968874990    0.013976578412114  0.0000
  O2     O2        0.091433872530191    0.237736738387087    0.369168146027089  0.0000
  O2     O2        0.387855530346908    0.871114416684347    0.365176278772627  0.0000
  O2     O2        0.899015927308567    0.254967173781468    0.629323422724875  0.0000
  O2     O2        0.585578967993549    0.856025960090522    0.629191049649166  0.0000
  O2     O2        0.872273358824006    0.915190997579413    0.629083577146619  0.0000
  O2     O2        0.606626300690069    0.197554640302803    0.619593553706230  0.0000
  O2     O2        0.099249706930079    0.892209622526654    0.358861354435978  0.0000
  O2     O2        0.378324769359768    0.217376096335961    0.369315025096516  0.0000
  O2     O2        0.991675467733809    0.043417169246805    0.499757581468852  0.0000
  O2     O2        0.491952556277777    0.053120931247455    0.492157973077749  0.0000
  O2     O2        0.980617624405381    0.057327209039074    0.252293331210767  0.0000
  O2     O2        0.492708050769528    0.073066921805940    0.244038906943503  0.0000
  O2     O2        0.999092254995906    0.041562764731315    0.746592266321370  0.0000
  O2     O2        0.479556704706338    0.066940121720242    0.738043561331234  0.0000
  O3     O3        0.622271762538245    0.130677924837822    0.113522745285260  0.0000
  O3     O3        0.866948329660931    0.919365405701159    0.124997488067461  0.0000
  O2     O2        0.373268075933895    0.211093248545372    0.883446545640749  0.0000
  O2     O2        0.111235721682500    0.888990572095600    0.875138010736627  0.0000
  O2     O2        0.393991344711767    0.866347940608402    0.888793013030465  0.0000
  O2     O2        0.089912051727755    0.232498973872666    0.892174226775197  0.0000
  O3     O3        0.560778581811777    0.817327082515212    0.112668071834576  0.0000
  O2     O2        0.908346672329146    0.257010601592081    0.088706433448016  0.0000
  O2     O2        0.498733489171808    0.089503652220949    0.988516384097177  0.0000
  O2     O2        0.991391670517326    0.996399235153589    0.999022274571848  0.0000
  O2     O2        0.126098596464174    0.563284965168748    0.303664437474804  0.0000
  O2     O2        0.353172995420644    0.545929225785893    0.304755683175544  0.0000
  O2     O2        0.845209741682169    0.578525843163070    0.665156916933102  0.0000
  O2     O2        0.636005211922888    0.530475730456550    0.667544165908769  0.0000
  O2     O2        0.236207016791609    0.320730232519139    0.313803349414041  0.0000
  O2     O2        0.242950452058780    0.789751790648411    0.309315352786095  0.0000
  O2     O2        0.750294701730882    0.302382119663741    0.687086586723203  0.0000
  O2     O2        0.730620693681453    0.802058104735932    0.707775944494513  0.0000
  O2     O2        0.130393595212260    0.311907481639876    0.128888513440648  0.0000
  O2     O2        0.351199117106253    0.793909847896759    0.125866405035331  0.0000
  O2     O2        0.860869036019533    0.365629326425012    0.860223181430652  0.0000
  O3     O3        0.609756808772539    0.738420699579968    0.862048324388127  0.0000
  O3     O3        0.848949350040546    0.804187513337657    0.863711243213755  0.0000
  O3     O3        0.635334038229562    0.290140677003269    0.855605949555651  0.0000
  O2     O2        0.140557742666754    0.808221041374881    0.121124676203448  0.0000
  O2     O2        0.341052509700483    0.294671280838588    0.127936264246945  0.0000
  O1     O1        0.633390342223580    0.497144609107414    0.073020456221536  0.0000
  O3     O3        0.839021090420799    0.560390846745195    0.068145908817503  0.0000
  O2     O2        0.358587055216579    0.540861127575812    0.950498886144669  0.0000
  O2     O2        0.125012227617842    0.558736426010528    0.947027680829281  0.0000
  O3     O3        0.759957483245742    0.265850336878256    0.032478761096705  0.0000
  O1     O1        0.722380889873276    0.808434765552357    0.043022841597821  0.0000
  O2     O2        0.236043757340126    0.323190285319300    0.943079141440160  0.0000
  O2     O2        0.247427604285034    0.775460778084970    0.938475470102155  0.0000
