data_c00230.vasp
_audit_creation_method             Generated by GULP
_audit_author_name                 Salvador R. G. Balestra
_symmetry_space_group_name_H-M     'P 1             '
_symmetry_Int_Tables_number        1

loop_
_symmetry_equiv_pos_site_id
_symmetry_equiv_pos_as_xyz
_cell_length_a                       17.1048
_cell_length_b                        7.6202
_cell_length_c                       10.2711
_cell_angle_alpha                   91.7156
_cell_angle_beta                    90.2222
_cell_angle_gamma                   89.9358

loop_
_atom_site_label
_atom_site_type_symbol
_atom_site_fract_x
_atom_site_fract_y
_atom_site_fract_z
_atom_site_charge
  Ge     Ge        0.160189999999943    0.293909999999983    0.273440000000051  0.0000
  Ge     Ge        0.349508779516660    0.324042505543558    0.273516180955181  0.0000
  Ge     Ge        0.648760355337026    0.330134968283620    0.015294981929232  0.0000
  Si     Si        0.044403530235248    0.007011875668970    0.354037607723954  0.0000
  Si     Si        0.452122849242691    0.014855384599064    0.355920364359027  0.0000
  Si     Si        0.947148425502793    0.980479080890638    0.611543954688380  0.0000
  Si     Si        0.549079868849708    0.991371866481876    0.615042667859644  0.0000
  Si     Si        0.553248577670793    0.016578182665417    0.104092635571587  0.0000
  Si     Si        0.944266615904775    0.007778404175305    0.094892293961461  0.0000
  Si     Si        0.440652722285858    0.993436772696499    0.862830537007693  0.0000
  Si     Si        0.056951051756770    0.987760701796698    0.855114998313895  0.0000
  Si     Si        0.333580822888185    0.732341331167953    0.260887267955939  0.0000
  Si     Si        0.832035669350002    0.277063607386381    0.709432855784758  0.0000
  Si     Si        0.664026625551664    0.705077029537228    0.702266851984788  0.0000
  Si     Si        0.843938225016764    0.679549704648989    0.703218195353013  0.0000
  Si     Si        0.652979871526398    0.300101564635509    0.704908408306507  0.0000
  Si     Si        0.151732588354240    0.703207110204476    0.262081878596086  0.0000
  Si     Si        0.846646892594353    0.692386428465134    0.006443212204115  0.0000
  Si     Si        0.345771859663007    0.307774802622263    0.963375348592502  0.0000
  Si     Si        0.151541770807357    0.679730930564661    0.959291558881578  0.0000
  Si     Si        0.331706311169482    0.706721828066917    0.956666709840976  0.0000
  Si     Si        0.163859430979509    0.278469830283711    0.963667552312724  0.0000
  Si     Si        0.665850698163483    0.732301736506039    0.006521044426327  0.0000
  Si     Si        0.831660795528802    0.297279732837005    0.015582975489414  0.0000
  O3     O3        0.101477124625410    0.171398659415161    0.371163529757009  0.0000
  O2     O2        0.376835571244543    0.887411819810360    0.341160663332615  0.0000
  O2     O2        0.886044398064782    0.138974268182840    0.632443839701670  0.0000
  O2     O2        0.611590430531557    0.832720236669564    0.616883759803947  0.0000
  O2     O2        0.902242826637286    0.794946652916888    0.619061370765115  0.0000
  O2     O2        0.594449912795429    0.177111191736138    0.619843313804991  0.0000
  O2     O2        0.098293745798409    0.833841346230252    0.347508514727520  0.0000
  O3     O3        0.418693181794079    0.210363128867417    0.360046206230081  0.0000
  O2     O2        0.982637385440213    0.993248316655439    0.468994736550505  0.0000
  O2     O2        0.500271515060080    0.972207442970441    0.483653440265549  0.0000
  O2     O2        0.997481455428558    0.029672855095218    0.220459702828066  0.0000
  O2     O2        0.510490011210640    0.976552692178284    0.236790193103847  0.0000
  O2     O2        0.018046400226803    0.993346855496661    0.713845955931687  0.0000
  O2     O2        0.487420509432868    0.976383335665928    0.730213827949914  0.0000
  O3     O3        0.581809933130780    0.216053082016016    0.103951237838247  0.0000
  O2     O2        0.902094741224879    0.818417645642676    0.093348412514269  0.0000
  O2     O2        0.399342395181285    0.183983732625290    0.870617446463177  0.0000
  O2     O2        0.095088375658501    0.795438843733408    0.870892634666818  0.0000
  O2     O2        0.376413252930995    0.838655176709484    0.864185487153728  0.0000
  O2     O2        0.122097170265213    0.140106608001231    0.865186648683937  0.0000
  O2     O2        0.629961142793109    0.893602469466442    0.089705962235919  0.0000
  O2     O2        0.880548270564153    0.162832395373492    0.100164027388354  0.0000
  O2     O2        0.497687221836724    0.966315340585934    0.983502633807155  0.0000
  O2     O2        0.993347800744913    0.029817788218638    0.964682922389931  0.0000
  O3     O3        0.128100361962475    0.507617277462357    0.290619969431840  0.0000
  O3     O3        0.369071956342337    0.545461899741643    0.293507244633849  0.0000
  O2     O2        0.861848032089799    0.473189909665905    0.679779218996864  0.0000
  O2     O2        0.635060423795275    0.504796206557428    0.679992481843905  0.0000
  O1     O1        0.256079053566916    0.280160934435783    0.319989323937909  0.0000
  O2     O2        0.242410356956332    0.734561138706861    0.300440176373704  0.0000
  O2     O2        0.742184116836881    0.255961967057525    0.663177707482807  0.0000
  O2     O2        0.754764100672726    0.720255582633990    0.661647725834871  0.0000
  O3     O3        0.152672925175849    0.225111297024623    0.111541912953663  0.0000
  O2     O2        0.340830619966884    0.767873882560779    0.107157843125546  0.0000
  O2     O2        0.834445029607077    0.241766800763721    0.862811775758644  0.0000
  O2     O2        0.655908964125816    0.764533652484400    0.852899014990125  0.0000
  O2     O2        0.858139025374654    0.733144129092367    0.854523954835910  0.0000
  O3     O3        0.639208496417260    0.260657199091538    0.854762211482510  0.0000
  O2     O2        0.140073702474382    0.742097516505195    0.109155182008079  0.0000
  O3     O3        0.362108717092877    0.261545635978162    0.111352153116759  0.0000
  O3     O3        0.625926068732809    0.549299697445406    0.037920282912300  0.0000
  O2     O2        0.868914964203864    0.491852232473168    0.034871091060891  0.0000
  O2     O2        0.366902616491507    0.510662754444049    0.937493420915784  0.0000
  O2     O2        0.129540914841722    0.474328043037050    0.942209175672949  0.0000
  O3     O3        0.743644883985137    0.296127045428590    0.064857067453897  0.0000
  O2     O2        0.756897135599270    0.724212187716136    0.044674471341289  0.0000
  O2     O2        0.255262287184281    0.275457187693433    0.929520559316072  0.0000
  O2     O2        0.240805694358080    0.708893016018989    0.916199931147344  0.0000
