data_c00206.vasp
_audit_creation_method             Generated by GULP
_audit_author_name                 Salvador R. G. Balestra
_symmetry_space_group_name_H-M     'P 1             '
_symmetry_Int_Tables_number        1

loop_
_symmetry_equiv_pos_site_id
_symmetry_equiv_pos_as_xyz
_cell_length_a                       17.2249
_cell_length_b                        7.6346
_cell_length_c                       10.2076
_cell_angle_alpha                   90.6419
_cell_angle_beta                    91.0310
_cell_angle_gamma                   88.9829

loop_
_atom_site_label
_atom_site_type_symbol
_atom_site_fract_x
_atom_site_fract_y
_atom_site_fract_z
_atom_site_charge
  Ge     Ge        0.160189999999943    0.293909999999983    0.273440000000051  0.0000
  Ge     Ge        0.834405875773822    0.237437939330578    0.703016366409336  0.0000
  Ge     Ge        0.848082265223768    0.657187102436044    0.701075625205837  0.0000
  Si     Si        0.054061751155013    0.995251371922962    0.366919458020010  0.0000
  Si     Si        0.456098983591865    0.978460604689611    0.344608479651134  0.0000
  Si     Si        0.954209558051485    0.952417008702872    0.617051161182025  0.0000
  Si     Si        0.547240697397870    0.984257123365977    0.613799818552588  0.0000
  Si     Si        0.561057338134516    0.988243865276731    0.093220814924087  0.0000
  Si     Si        0.945224137230299    0.965489327760761    0.120204388069163  0.0000
  Si     Si        0.442318422521947    0.965534462699551    0.856241506404754  0.0000
  Si     Si        0.054402542169720    0.985289383699449    0.877290848544968  0.0000
  Si     Si        0.347122469355297    0.680953832532970    0.261483099245909  0.0000
  Si     Si        0.665624268508292    0.689940640154571    0.704055029179179  0.0000
  Si     Si        0.653335247174583    0.286291424003409    0.705035733568832  0.0000
  Si     Si        0.167472368502235    0.703072334275725    0.264510461874584  0.0000
  Si     Si        0.342636789218885    0.277698572953740    0.269426279017829  0.0000
  Si     Si        0.658936165561023    0.296179309553238    0.013394781473054  0.0000
  Si     Si        0.849424422952507    0.660209981972036    0.011390769428521  0.0000
  Si     Si        0.337567472250540    0.269924401774652    0.961723460089970  0.0000
  Si     Si        0.162368613907532    0.683939647679730    0.958010809910471  0.0000
  Si     Si        0.341736090175602    0.669074061088034    0.956439745805609  0.0000
  Si     Si        0.158744170445082    0.283649493136761    0.960560302635232  0.0000
  Si     Si        0.671068641443208    0.690304890088538    0.012526677013312  0.0000
  Si     Si        0.836928287171403    0.256706869030454    0.013939300836066  0.0000
  O3     O3        0.093599988822141    0.182220645596587    0.361653829752799  0.0000
  O2     O2        0.403305056025681    0.806116537890785    0.344844833074830  0.0000
  O3     O3        0.884123755485221    0.092518845372615    0.605023189330549  0.0000
  O2     O2        0.608888709920674    0.825289767701280    0.629912603827999  0.0000
  O3     O3        0.915351651961912    0.764700367686983    0.610561403612238  0.0000
  O2     O2        0.588212534732669    0.170778558575592    0.633072185637071  0.0000
  O2     O2        0.122072325271111    0.851603418453932    0.344719593885809  0.0000
  O2     O2        0.401514426173575    0.151912916614952    0.349247711450249  0.0000
  O2     O2        0.019382850951724    0.970342564094159    0.509416500096635  0.0000
  O2     O2        0.513151089992783    0.975089923878474    0.468202929337093  0.0000
  O2     O2        0.983637624272165    0.972930934754255    0.263530257567198  0.0000
  O2     O2        0.507820918557127    0.977991463808736    0.216989044129665  0.0000
  O2     O2        0.993997393294462    0.988433999837645    0.758584373464458  0.0000
  O2     O2        0.476147333126109    0.967814791801279    0.711899180151110  0.0000
  O2     O2        0.602263980525748    0.176316440986475    0.095203682825417  0.0000
  O2     O2        0.904906795173364    0.776865081481956    0.104669253457380  0.0000
  O2     O2        0.388047384970031    0.136307190711916    0.876234885673011  0.0000
  O2     O2        0.109660841575959    0.812173710850738    0.868839065974833  0.0000
  O2     O2        0.393084851176948    0.789290389790152    0.866402276882546  0.0000
  O2     O2        0.105448933678743    0.159879140908029    0.869790347468339  0.0000
  O2     O2        0.625682173809198    0.833438007899564    0.098867381594306  0.0000
  O2     O2        0.883844263014543    0.126830658622126    0.110684193393487  0.0000
  O2     O2        0.512175483047855    0.963250407779907    0.960434096466942  0.0000
  O2     O2        0.010625063018227    0.987895768341465    0.013627071788248  0.0000
  O3     O3        0.138951844339718    0.512919938869019    0.299981055253820  0.0000
  O2     O2        0.368040567068701    0.478854968724091    0.291558040916079  0.0000
  O1     O1        0.868472815192549    0.441777639991410    0.678062134220973  0.0000
  O2     O2        0.637145842497422    0.491758809173444    0.676915023780339  0.0000
  O3     O3        0.255991606051216    0.253060141849616    0.318092918729218  0.0000
  O2     O2        0.258505909719319    0.720460993640999    0.300898192240842  0.0000
  O3     O3        0.737613848607440    0.232126590723998    0.655558526333118  0.0000
  O3     O3        0.752785829179359    0.707550364784182    0.655535446952357  0.0000
  O3     O3        0.148346494320727    0.236543803162245    0.110908930797008  0.0000
  O2     O2        0.356655337550764    0.721090729443385    0.107924833076130  0.0000
  O3     O3        0.843354220688624    0.184960449309273    0.867110128219955  0.0000
  O2     O2        0.664327808845353    0.733476698499572    0.859010734416516  0.0000
  O3     O3        0.859794892400849    0.719428303095219    0.863774827847840  0.0000
  O2     O2        0.650802982346801    0.250205426691583    0.860119478452059  0.0000
  O2     O2        0.153715825105569    0.736461332562366    0.109954342376765  0.0000
  O2     O2        0.346952460156845    0.227642423510628    0.115294320023053  0.0000
  O2     O2        0.635995823710337    0.499225545835424    0.039989086896416  0.0000
  O2     O2        0.871297479340177    0.453396312342468    0.023583661089413  0.0000
  O2     O2        0.365692635059250    0.466196073303422    0.932965921416970  0.0000
  O2     O2        0.133900864945518    0.485737228903375    0.935153775618128  0.0000
  O2     O2        0.747707204828348    0.260797067446010    0.058779923352488  0.0000
  O2     O2        0.761038713617178    0.692502649151661    0.056245732191262  0.0000
  O2     O2        0.247827015767134    0.251907589222041    0.919815520370935  0.0000
  O2     O2        0.251649811220613    0.700292351783830    0.917404396953277  0.0000
