data_c00263.vasp
_audit_creation_method             Generated by GULP
_audit_author_name                 Salvador R. G. Balestra
_symmetry_space_group_name_H-M     'P 1             '
_symmetry_Int_Tables_number        1

loop_
_symmetry_equiv_pos_site_id
_symmetry_equiv_pos_as_xyz
_cell_length_a                       16.9621
_cell_length_b                        7.6098
_cell_length_c                       10.3139
_cell_angle_alpha                   90.4511
_cell_angle_beta                    89.7800
_cell_angle_gamma                   90.1277

loop_
_atom_site_label
_atom_site_type_symbol
_atom_site_fract_x
_atom_site_fract_y
_atom_site_fract_z
_atom_site_charge
  Ge     Ge        0.660660000000007    0.294089999999983    0.017439999999965  0.0000
  Ge     Ge        0.821707773849443    0.751181577737160    0.020261504404748  0.0000
  Ge     Ge        0.342996050005757    0.694703604393730    0.970322211173710  0.0000
  Si     Si        0.041122294572157    0.030441717442711    0.369213033928826  0.0000
  Si     Si        0.440614472504408    0.016459341466734    0.368396186102107  0.0000
  Si     Si        0.941855603182985    0.029774417488723    0.629023195494768  0.0000
  Si     Si        0.542288170836687    0.016348328311016    0.625136622971243  0.0000
  Si     Si        0.547663756020120    0.011104094653367    0.117249083456215  0.0000
  Si     Si        0.932949599419671    0.035693330794373    0.121144155574996  0.0000
  Si     Si        0.439620700121473    0.013250110021223    0.876708110547237  0.0000
  Si     Si        0.044018113307617    0.007075540977033    0.883732022555118  0.0000
  Si     Si        0.145591245638440    0.332875818106263    0.283296886569503  0.0000
  Si     Si        0.336947962491442    0.712244015422739    0.278164994669185  0.0000
  Si     Si        0.839272411095627    0.341213744110176    0.714246187625940  0.0000
  Si     Si        0.643960018765263    0.706467344903576    0.716427165011896  0.0000
  Si     Si        0.824331112289409    0.745578056773073    0.712837242838840  0.0000
  Si     Si        0.659305673891301    0.301648780312933    0.710280812198404  0.0000
  Si     Si        0.155655842391819    0.735351975158556    0.274089309200122  0.0000
  Si     Si        0.327115619536533    0.306986867446008    0.281003741022710  0.0000
  Si     Si        0.324562545149838    0.289044563308607    0.978305002186889  0.0000
  Si     Si        0.157488520573092    0.720627974031251    0.969984243769358  0.0000
  Si     Si        0.142122609058968    0.322545814795911    0.982056163602239  0.0000
  Si     Si        0.636988000523265    0.692606780892352    0.019076224997122  0.0000
  Si     Si        0.844911468370737    0.352682401820936    0.017795493257005  0.0000
  O2     O2        0.088414294124877    0.214633661801853    0.370882650459807  0.0000
  O2     O2        0.393132372264276    0.832825822524694    0.367267994882091  0.0000
  O2     O2        0.900683220958238    0.221213083745242    0.634281941863915  0.0000
  O2     O2        0.583145313478371    0.825354280912628    0.636677276754042  0.0000
  O2     O2        0.875179945801194    0.878086191485195    0.625022489357580  0.0000
  O2     O2        0.608403463487950    0.169043975916444    0.621538167723133  0.0000
  O2     O2        0.102496429399237    0.870518140227246    0.354809922064559  0.0000
  O2     O2        0.379232186873971    0.178630665894289    0.368454991477785  0.0000
  O2     O2        0.994410322171039    0.012647227635276    0.501848625717828  0.0000
  O2     O2        0.493492942162183    0.024244610357381    0.494547279476663  0.0000
  O2     O2        0.978448920037819    0.024362160571561    0.254563606015958  0.0000
  O2     O2        0.498068441511297    0.032910623342562    0.246485723663325  0.0000
  O2     O2        0.999018263377035    0.001423825290229    0.749482169444253  0.0000
  O2     O2        0.481438398857445    0.052522475732862    0.741489418053369  0.0000
  O3     O3        0.622594361779289    0.137941933535882    0.118966953546835  0.0000
  O3     O3        0.857626583755808    0.909728253672587    0.123237121432260  0.0000
  O2     O2        0.361866915893062    0.133943356015510    0.892250130295816  0.0000
  O2     O2        0.109322863020184    0.854612132612736    0.881741860041171  0.0000
  O3     O3        0.411237780953774    0.812834614946468    0.883103223398586  0.0000
  O2     O2        0.084305299888063    0.198089446727956    0.900496778628989  0.0000
  O2     O2        0.575169911109083    0.809315639131872    0.100973338204606  0.0000
  O2     O2        0.906982548612913    0.235857144542588    0.096486973819745  0.0000
  O2     O2        0.497732441542635    0.070826646670874    0.992420690547052  0.0000
  O2     O2        0.985007054333750    0.962629258715858    0.001095376417974  0.0000
  O2     O2        0.125750325856290    0.538018569444840    0.304185644118545  0.0000
  O2     O2        0.356477428580556    0.507171866423376    0.300887003130707  0.0000
  O2     O2        0.857827083068098    0.547610711796414    0.694516609120498  0.0000
  O2     O2        0.625737365091435    0.499701913255382    0.695172438540198  0.0000
  O2     O2        0.235661190541412    0.293462459285201    0.322840908349844  0.0000
  O2     O2        0.246466722460861    0.753055978339367    0.317156397026337  0.0000
  O2     O2        0.750809919090229    0.298716633399809    0.665515973861212  0.0000
  O2     O2        0.732769667096131    0.749337894292169    0.669495829593998  0.0000
  O2     O2        0.130886079056820    0.279073013690636    0.133705271207382  0.0000
  O3     O3        0.352785399600657    0.760123356581750    0.129900818139427  0.0000
  O2     O2        0.846236580023885    0.296051414058326    0.865826314343643  0.0000
  O2     O2        0.634690716161368    0.752714217998923    0.868277214570110  0.0000
  O3     O3        0.828926127698852    0.811612974738020    0.860093772083922  0.0000
  O3     O3        0.654747223434596    0.234111591910952    0.856461591076370  0.0000
  O2     O2        0.151296527527626    0.776325556425777    0.121376962559152  0.0000
  O2     O2        0.335239707520094    0.249905714559448    0.131049436497670  0.0000
  O3     O3        0.611929165497593    0.492549608830771    0.034627571638723  0.0000
  O3     O3        0.869738297098688    0.552627595335511    0.037066409572130  0.0000
  O3     O3        0.363838757007358    0.474873698481464    0.947765945882905  0.0000
  O2     O2        0.121266669569890    0.524682410576234    0.952705708893133  0.0000
  O3     O3        0.756659441849989    0.320595678393704    0.066933814080697  0.0000
  O3     O3        0.725225480864868    0.721947782979450    0.067446715300571  0.0000
  O2     O2        0.232472290823738    0.290329148229898    0.942174831246442  0.0000
  O3     O3        0.246885276702157    0.727154642410925    0.923337554245017  0.0000
