data_c00265.vasp
_audit_creation_method             Generated by GULP
_audit_author_name                 Salvador R. G. Balestra
_symmetry_space_group_name_H-M     'P 1             '
_symmetry_Int_Tables_number        1

loop_
_symmetry_equiv_pos_site_id
_symmetry_equiv_pos_as_xyz
_cell_length_a                       16.9935
_cell_length_b                        7.5966
_cell_length_c                       10.3077
_cell_angle_alpha                   90.5576
_cell_angle_beta                    89.7264
_cell_angle_gamma                   89.5867

loop_
_atom_site_label
_atom_site_type_symbol
_atom_site_fract_x
_atom_site_fract_y
_atom_site_fract_z
_atom_site_charge
  Ge     Ge        0.660660000000007    0.294089999999983    0.017439999999965  0.0000
  Ge     Ge        0.328445982410670    0.259245329348216    0.977071356062450  0.0000
  Ge     Ge        0.352620981454534    0.670845919567619    0.972418946581797  0.0000
  Si     Si        0.042609960731576    0.017607894548809    0.363115813252421  0.0000
  Si     Si        0.441382723524149    0.997048639542014    0.369496515180262  0.0000
  Si     Si        0.948930842132246    0.009696560877167    0.628930636183037  0.0000
  Si     Si        0.548811891527702    0.002486769506861    0.619202168142593  0.0000
  Si     Si        0.546901449515810    0.013024720568904    0.115897576119795  0.0000
  Si     Si        0.937356831429888    0.011856081640605    0.114437809754545  0.0000
  Si     Si        0.444169835575705    0.985265166945668    0.870406606673885  0.0000
  Si     Si        0.052715595101929    0.003857603930447    0.881025174580611  0.0000
  Si     Si        0.146398271762074    0.324048734028767    0.277785569703881  0.0000
  Si     Si        0.340903668838777    0.691400736609320    0.278551701279623  0.0000
  Si     Si        0.842871966684848    0.319461431055631    0.714543355202116  0.0000
  Si     Si        0.651425476400434    0.697970115389136    0.710602544855640  0.0000
  Si     Si        0.832696746031068    0.722710107669853    0.714179836215701  0.0000
  Si     Si        0.662681648320948    0.289974791792601    0.709864195084847  0.0000
  Si     Si        0.160948895670138    0.725338224186038    0.272092506022070  0.0000
  Si     Si        0.326066985216034    0.283077052951330    0.284222460276891  0.0000
  Si     Si        0.826846394299882    0.727546889141206    0.016399679877280  0.0000
  Si     Si        0.167165417225011    0.717199402626875    0.968000261610401  0.0000
  Si     Si        0.145458488404917    0.322722633126993    0.973464492430788  0.0000
  Si     Si        0.643763039579280    0.699346695037888    0.010459672110080  0.0000
  Si     Si        0.844207086539314    0.330148186127823    0.019452534763503  0.0000
  O2     O2        0.084221931590095    0.207632476623534    0.356462686398601  0.0000
  O2     O2        0.397554432020781    0.808764173789090    0.369766030923549  0.0000
  O2     O2        0.904242117470570    0.197395753847103    0.636350342459923  0.0000
  O2     O2        0.594663830178638    0.815337949507068    0.621747415214146  0.0000
  O2     O2        0.884662286735528    0.854326047622273    0.629742852657465  0.0000
  O2     O2        0.611131338065287    0.161894284222584    0.619278963702871  0.0000
  O2     O2        0.108658352481992    0.865792992383376    0.350685305912879  0.0000
  O2     O2        0.377603137604024    0.156230461176986    0.375981381472848  0.0000
  O2     O2        0.999035287851782    0.998913655771951    0.498784642649154  0.0000
  O2     O2        0.497429687729192    0.010769615906637    0.491702424060463  0.0000
  O2     O2        0.977524098967981    0.995786676170235    0.252675380123017  0.0000
  O2     O2        0.495625912066042    0.016416082538975    0.244060320011974  0.0000
  O2     O2        0.008442077850605    0.984521592311379    0.746555679980657  0.0000
  O2     O2        0.490077116182988    0.025327292911599    0.739726231077708  0.0000
  O3     O3        0.614017543093533    0.157373476658231    0.123142802717452  0.0000
  O2     O2        0.865298333300846    0.874813029156416    0.107878973694911  0.0000
  O3     O3        0.362772245322265    0.092425696353776    0.878578302300772  0.0000
  O2     O2        0.124445975903419    0.864430212498988    0.882206630555943  0.0000
  O3     O3        0.423126788862735    0.781837799140440    0.884630025554701  0.0000
  O2     O2        0.083698715352478    0.203246510394778    0.895421584586929  0.0000
  O2     O2        0.586716325838728    0.821132105358990    0.096893810135322  0.0000
  O2     O2        0.906450423118479    0.211510299425481    0.096882665323126  0.0000
  O2     O2        0.493123537325760    0.063524660754778    0.992769857081627  0.0000
  O2     O2        0.996768383751419    0.955220869384707    0.000583450902425  0.0000
  O2     O2        0.126859872227668    0.530615313554161    0.298473806795406  0.0000
  O2     O2        0.358633228416875    0.482782179887854    0.292997680965578  0.0000
  O2     O2        0.862607267014247    0.523305861421123    0.688248559473002  0.0000
  O2     O2        0.633207008911719    0.491416842486803    0.692047652055615  0.0000
  O2     O2        0.234489641699595    0.282027043787921    0.327967048503454  0.0000
  O2     O2        0.250900250287161    0.733140508487384    0.320743098120833  0.0000
  O2     O2        0.754377176424425    0.276489566530195    0.668292910992250  0.0000
  O2     O2        0.741564301404997    0.738291406178992    0.672633362188007  0.0000
  O2     O2        0.140325530936412    0.275100717009134    0.125918515053252  0.0000
  O3     O3        0.357226199758049    0.744575458911547    0.131584663565570  0.0000
  O2     O2        0.849411396764338    0.280068489541799    0.867110794475819  0.0000
  O2     O2        0.634564525429049    0.753829211898048    0.859752058875927  0.0000
  O2     O2        0.839497006762524    0.775286349485545    0.865639705976241  0.0000
  O3     O3        0.653930060675791    0.228851882765883    0.857250142358994  0.0000
  O2     O2        0.161745711677535    0.770690282580441    0.119977032529118  0.0000
  O3     O3        0.332207159793984    0.207648318990869    0.139504489785781  0.0000
  O3     O3        0.619087539955315    0.501252971079748    0.031888414166607  0.0000
  O2     O2        0.864763762474418    0.535651986446247    0.043262991725856  0.0000
  O1     O1        0.376186275465698    0.454384286244901    0.955492948288985  0.0000
  O2     O2        0.124899114973241    0.527937389810907    0.948951698989231  0.0000
  O3     O3        0.756911244095881    0.294523765583897    0.067703491292856  0.0000
  O2     O2        0.734576416929519    0.724340079154502    0.050742564202366  0.0000
  O3     O3        0.232864725525969    0.286477362156638    0.925872264587048  0.0000
  O3     O3        0.256715769879506    0.705714430721180    0.922525761877665  0.0000
