data_c00255.vasp
_audit_creation_method             Generated by GULP
_audit_author_name                 Salvador R. G. Balestra
_symmetry_space_group_name_H-M     'P 1             '
_symmetry_Int_Tables_number        1

loop_
_symmetry_equiv_pos_site_id
_symmetry_equiv_pos_as_xyz
_cell_length_a                       17.0496
_cell_length_b                        7.6036
_cell_length_c                       10.3063
_cell_angle_alpha                   91.1876
_cell_angle_beta                    90.3155
_cell_angle_gamma                   89.8762

loop_
_atom_site_label
_atom_site_type_symbol
_atom_site_fract_x
_atom_site_fract_y
_atom_site_fract_z
_atom_site_charge
  Ge     Ge        0.160189999999943    0.293909999999983    0.273440000000051  0.0000
  Ge     Ge        0.177519348646598    0.693477913909202    0.960096932777327  0.0000
  Ge     Ge        0.863023742405042    0.304689869433724    0.010356033983770  0.0000
  Si     Si        0.056905732704306    0.987266275882216    0.361075606514824  0.0000
  Si     Si        0.461570985138909    0.976154017774204    0.358170412750393  0.0000
  Si     Si        0.953794986529827    0.977261165902523    0.613297790741806  0.0000
  Si     Si        0.554584226403698    0.967317992379634    0.624611493713082  0.0000
  Si     Si        0.567980911157955    0.985650721457942    0.109505026584239  0.0000
  Si     Si        0.960096030004078    0.988298740516432    0.102375618609437  0.0000
  Si     Si        0.451540155959300    0.963972660599017    0.875263268559903  0.0000
  Si     Si        0.066461282140513    0.975660645612793    0.859185193307557  0.0000
  Si     Si        0.355854774782969    0.666693499534847    0.269460404136070  0.0000
  Si     Si        0.851737446051369    0.284712987086514    0.701457919667710  0.0000
  Si     Si        0.659696107373792    0.663606149039993    0.709792753743386  0.0000
  Si     Si        0.840103372962290    0.689749391465125    0.701678170758137  0.0000
  Si     Si        0.672032929957113    0.259981355330649    0.714996617538107  0.0000
  Si     Si        0.176329785355588    0.709076520424853    0.266507554876865  0.0000
  Si     Si        0.343983949949962    0.264520479677727    0.276948628370790  0.0000
  Si     Si        0.679157475621017    0.272919426661833    0.019443797044175  0.0000
  Si     Si        0.844547907746514    0.708877143237203    0.005065172888848  0.0000
  Si     Si        0.340202270518107    0.252762170525518    0.972737029123988  0.0000
  Si     Si        0.359877644521474    0.646471228064801    0.964868099161846  0.0000
  Si     Si        0.157864798903267    0.288258764402662    0.968811333151866  0.0000
  Si     Si        0.663358392417021    0.670253466871024    0.011454558446795  0.0000
  O3     O3        0.093527436561263    0.180695371540580    0.364615796423158  0.0000
  O2     O2        0.416324025426266    0.790732864038338    0.347399883168923  0.0000
  O2     O2        0.907733258504587    0.163047978721125    0.611393793268984  0.0000
  O2     O2        0.599452157438217    0.780111297271385    0.627894650149381  0.0000
  O2     O2        0.890997303094699    0.818796856221899    0.614842765282750  0.0000
  O2     O2        0.617703630857843    0.123554063138940    0.637076087750375  0.0000
  O2     O2        0.129098387897448    0.849435885779059    0.355063141507951  0.0000
  O2     O2        0.399025851441773    0.134975885745500    0.357555663621342  0.0000
  O2     O2        0.005835066887052    0.954371820503329    0.486904535494853  0.0000
  O2     O2        0.509783663131369    0.983455458094184    0.490239523082368  0.0000
  O2     O2        0.999727080202467    0.952795582815512    0.239208060450503  0.0000
  O2     O2        0.522546229195020    0.999032597562076    0.242997970616821  0.0000
  O2     O2        0.011159896672910    0.968131505516085    0.735514984589948  0.0000
  O2     O2        0.490420443461596    0.984527859864272    0.736684679862039  0.0000
  O2     O2        0.632862370212054    0.138442212766811    0.108279449854241  0.0000
  O2     O2        0.882150583292341    0.868928134285259    0.086941465054437  0.0000
  O2     O2        0.378340463395578    0.098272477479550    0.885855445257359  0.0000
  O3     O3        0.133454592695722    0.829590801140242    0.850619625867048  0.0000
  O2     O2        0.422799652630143    0.763122291733546    0.889210351067293  0.0000
  O2     O2        0.104866992180227    0.169170769267473    0.871883749524708  0.0000
  O2     O2        0.608699727925795    0.794389736575183    0.099623254090289  0.0000
  O3     O3        0.933363581143643    0.189533343028431    0.093590268091917  0.0000
  O2     O2        0.511093218789943    0.018867552467324    0.988890607852869  0.0000
  O2     O2        0.018689199795681    0.928064445425265    0.988441224102453  0.0000
  O3     O3        0.141162154268326    0.516141999247633    0.282638370348823  0.0000
  O2     O2        0.375331459301744    0.463791105761860    0.298300095059087  0.0000
  O2     O2        0.869340159556116    0.489885773757920    0.676718269991239  0.0000
  O2     O2        0.641373883855568    0.457278362123794    0.688205129774498  0.0000
  O3     O3        0.255083016728145    0.252598270143478    0.323838403893135  0.0000
  O2     O2        0.267150650960276    0.708676565115293    0.313896649942008  0.0000
  O2     O2        0.761317384881293    0.241640738495701    0.665902717540466  0.0000
  O2     O2        0.748286006950550    0.705251525867655    0.665010284136940  0.0000
  O3     O3        0.145632544222253    0.223855984338507    0.114428129614262  0.0000
  O2     O2        0.362925007615328    0.702360659108851    0.116711418040834  0.0000
  O3     O3        0.869763924872164    0.240734109023753    0.849465286953326  0.0000
  O2     O2        0.648678613861815    0.715770289661031    0.861098078297769  0.0000
  O2     O2        0.851506511478836    0.744922245613159    0.851844045291495  0.0000
  O2     O2        0.671730707635740    0.218428889201387    0.867498234043127  0.0000
  O3     O3        0.172974605563528    0.769458587156824    0.118483203096356  0.0000
  O2     O2        0.346231905927834    0.208810497912603    0.124697136609006  0.0000
  O2     O2        0.642674609769490    0.468343035161945    0.039713799705281  0.0000
  O3     O3        0.885227675746055    0.524511662468146    0.033916450926927  0.0000
  O2     O2        0.381970618187824    0.439881113778597    0.946318594580608  0.0000
  O3     O3        0.133578901704199    0.488704397645418    0.953399527402172  0.0000
  O3     O3        0.768890269244463    0.268957310598309    0.062841397263693  0.0000
  O2     O2        0.754009030214128    0.701826403622796    0.046546510021924  0.0000
  O2     O2        0.249521451474452    0.267083944637190    0.932304294369481  0.0000
  O3     O3        0.273754422059023    0.679867468111360    0.910958581656565  0.0000
