data_c00212.vasp
_audit_creation_method             Generated by GULP
_audit_author_name                 Salvador R. G. Balestra
_symmetry_space_group_name_H-M     'P 1             '
_symmetry_Int_Tables_number        1

loop_
_symmetry_equiv_pos_site_id
_symmetry_equiv_pos_as_xyz
_cell_length_a                       17.1978
_cell_length_b                        7.6601
_cell_length_c                       10.2297
_cell_angle_alpha                   91.9736
_cell_angle_beta                    89.9392
_cell_angle_gamma                   89.3841

loop_
_atom_site_label
_atom_site_type_symbol
_atom_site_fract_x
_atom_site_fract_y
_atom_site_fract_z
_atom_site_charge
  Ge     Ge        0.160189999999943    0.293909999999983    0.273440000000051  0.0000
  Ge     Ge        0.661094809613306    0.681428213058762    0.696577407021810  0.0000
  Ge     Ge        0.850406334100951    0.649731159882397    0.697288157642888  0.0000
  Si     Si        0.048603207362795    0.001859435290817    0.351855381073138  0.0000
  Si     Si        0.451868984087100    0.996670622373161    0.359828551731703  0.0000
  Si     Si        0.953941697668795    0.950499157246478    0.609549096844713  0.0000
  Si     Si        0.546720255346207    0.972891395715573    0.619779314739097  0.0000
  Si     Si        0.560180068700586    0.996782525138029    0.116414855101681  0.0000
  Si     Si        0.943270323680440    0.984643505963499    0.097571899147456  0.0000
  Si     Si        0.445212147654996    0.968265375418394    0.877685457617425  0.0000
  Si     Si        0.058064025023426    0.976412986796886    0.857813944918710  0.0000
  Si     Si        0.341531844877844    0.696903786566442    0.263710695661120  0.0000
  Si     Si        0.836235919865151    0.243637852398124    0.710775989237518  0.0000
  Si     Si        0.656668249911208    0.271687091262090    0.708368067455152  0.0000
  Si     Si        0.161774520821044    0.703406708179334    0.267743025233282  0.0000
  Si     Si        0.342953752894950    0.294705692107681    0.269822421927082  0.0000
  Si     Si        0.655254157277131    0.302482696424025    0.015688893715891  0.0000
  Si     Si        0.847431744373186    0.672785143823699    0.006235007085308  0.0000
  Si     Si        0.340931598373203    0.278851070759262    0.962175821360468  0.0000
  Si     Si        0.159921593832928    0.676508842371000    0.962167792124851  0.0000
  Si     Si        0.339316680665002    0.674809083650404    0.958143695963700  0.0000
  Si     Si        0.161219901337668    0.275675533358891    0.962392123613202  0.0000
  Si     Si        0.663704254275523    0.700231641752739    0.004752133856307  0.0000
  Si     Si        0.834748454572325    0.280052745825331    0.019276015242829  0.0000
  O3     O3        0.097142582560825    0.177693795776160    0.365893862357587  0.0000
  O2     O2        0.396819614811375    0.829223557519464    0.342153093919653  0.0000
  O2     O2        0.884233158815936    0.086960718332244    0.642238235290311  0.0000
  O3     O3        0.601539795211207    0.804571250833466    0.599854950000153  0.0000
  O3     O3        0.917348070003827    0.760377003831035    0.606963095600593  0.0000
  O2     O2        0.601133285123717    0.141938703860313    0.628369158767520  0.0000
  O2     O2        0.110475688623990    0.842119730536544    0.351192698174985  0.0000
  O2     O2        0.402872249296782    0.175114696529185    0.347190960745266  0.0000
  O2     O2        0.988232322710110    0.989102606259837    0.468784501967754  0.0000
  O2     O2        0.485766749594922    0.993706272231612    0.504334737984164  0.0000
  O2     O2        0.000437958396184    0.997543403128139    0.218277056342220  0.0000
  O2     O2        0.523703355685412    0.989877549408604    0.259626997873566  0.0000
  O2     O2        0.023430563539854    0.970561364811469    0.713343543609715  0.0000
  O2     O2        0.499350850028517    0.956310228189782    0.753095370341252  0.0000
  O2     O2        0.598578902968866    0.186340839055705    0.100721823769106  0.0000
  O2     O2        0.895198269394736    0.804979097031460    0.100915511368497  0.0000
  O2     O2        0.393892372547184    0.145509226525026    0.876874349027237  0.0000
  O2     O2        0.107125839253870    0.798425317682146    0.874425933415964  0.0000
  O2     O2        0.389524467893209    0.800160354130125    0.870382525047482  0.0000
  O2     O2        0.112153077651019    0.146281491985300    0.869040271936042  0.0000
  O2     O2        0.625059738221843    0.843967692866976    0.103225780386367  0.0000
  O2     O2        0.883705805033954    0.148683725460957    0.106234377959210  0.0000
  O2     O2        0.493955430867798    0.963395270386697    0.010008865153473  0.0000
  O2     O2        0.989729705938385    0.992853485672874    0.962871686364912  0.0000
  O3     O3        0.136525261998374    0.510943138668638    0.299925126388636  0.0000
  O2     O2        0.364355683744432    0.498140406476192    0.295887854202194  0.0000
  O3     O3        0.859120008722667    0.429139611486515    0.657190628189297  0.0000
  O3     O3        0.643832319130810    0.463934455105524    0.659885112599318  0.0000
  O3     O3        0.256069106125655    0.261174622775830    0.316690993525681  0.0000
  O2     O2        0.252141195078270    0.732917063504291    0.304871281991201  0.0000
  O2     O2        0.745412853968648    0.209105883146048    0.682872676189084  0.0000
  O1     O1        0.757358107820067    0.718896804812929    0.669341075322186  0.0000
  O3     O3        0.148508805616299    0.228666763973478    0.111566456317825  0.0000
  O2     O2        0.350901119300913    0.728131213098969    0.110110006669105  0.0000
  O2     O2        0.851148621076277    0.244517284159448    0.866228720916875  0.0000
  O3     O3        0.636938763488848    0.730924685586875    0.858250646935353  0.0000
  O3     O3        0.876230545796869    0.687688550817804    0.859187364860573  0.0000
  O2     O2        0.638554461570003    0.263320699863237    0.863049042173856  0.0000
  O2     O2        0.149615325704498    0.734977352576739    0.113678671640709  0.0000
  O2     O2        0.350058034130476    0.244937520930098    0.115687768607231  0.0000
  O2     O2        0.639192737667164    0.507098448791211    0.049109065830301  0.0000
  O2     O2        0.860349298944844    0.477420759321215    0.057825615246720  0.0000
  O2     O2        0.367091452652382    0.474906657019258    0.931061444080389  0.0000
  O2     O2        0.133773117574191    0.475700446002869    0.941254068845047  0.0000
  O2     O2        0.744010702630925    0.254056712682794    0.050015043580897  0.0000
  O2     O2        0.756331479532454    0.720483176491504    0.009165614317487  0.0000
  O2     O2        0.251426220713230    0.252643488189191    0.922860714175725  0.0000
  O2     O2        0.249248874131473    0.696341497826175    0.919414455444211  0.0000
