data_c00214.vasp
_audit_creation_method             Generated by GULP
_audit_author_name                 Salvador R. G. Balestra
_symmetry_space_group_name_H-M     'P 1             '
_symmetry_Int_Tables_number        1

loop_
_symmetry_equiv_pos_site_id
_symmetry_equiv_pos_as_xyz
_cell_length_a                       17.1762
_cell_length_b                        7.6390
_cell_length_c                       10.1802
_cell_angle_alpha                   91.4510
_cell_angle_beta                    89.7800
_cell_angle_gamma                   89.5500

loop_
_atom_site_label
_atom_site_type_symbol
_atom_site_fract_x
_atom_site_fract_y
_atom_site_fract_z
_atom_site_charge
  Ge     Ge        0.160189999999943    0.293909999999983    0.273440000000051  0.0000
  Ge     Ge        0.664649820093735    0.708981593660251    0.701596179075092  0.0000
  Ge     Ge        0.652210903186758    0.326330665648022    0.023727270262283  0.0000
  Si     Si        0.046051028258319    0.005127811765700    0.355085409897558  0.0000
  Si     Si        0.448173223132490    0.007696247667909    0.368269240283298  0.0000
  Si     Si        0.949555111631318    0.976907603202065    0.614153288248863  0.0000
  Si     Si        0.548109738276939    0.996704841191658    0.623720323318624  0.0000
  Si     Si        0.556931450851620    0.016875696964459    0.125914216295029  0.0000
  Si     Si        0.945460364007061    0.004009006706166    0.095743704793252  0.0000
  Si     Si        0.446152023417683    0.991402512650712    0.881945817557903  0.0000
  Si     Si        0.059485133468755    0.993504935311040    0.855042448940142  0.0000
  Si     Si        0.336501239700150    0.713213344268803    0.270387989754849  0.0000
  Si     Si        0.834064764646365    0.274460562633208    0.715092353441828  0.0000
  Si     Si        0.846734763998623    0.674891310616294    0.703120876298094  0.0000
  Si     Si        0.654884417230186    0.296341568387495    0.712998674727697  0.0000
  Si     Si        0.156217026783457    0.704810161470901    0.270117609299886  0.0000
  Si     Si        0.343188599231091    0.309996643258662    0.272743402294335  0.0000
  Si     Si        0.845981230520290    0.690914627211801    0.011092240281376  0.0000
  Si     Si        0.344162134782081    0.304113784007188    0.964063930129940  0.0000
  Si     Si        0.157144299707814    0.688611048546097    0.963756519601247  0.0000
  Si     Si        0.336920364058609    0.701356235159226    0.963542497006991  0.0000
  Si     Si        0.164493987252511    0.286385959646769    0.960985777132917  0.0000
  Si     Si        0.666445392431569    0.732582495166564    0.011920469790301  0.0000
  Si     Si        0.833952126195782    0.298149097463988    0.024029030699719  0.0000
  O3     O3        0.100377513954086    0.173031544598344    0.370426119153516  0.0000
  O2     O2        0.388044273880562    0.847727604861496    0.354720282771606  0.0000
  O2     O2        0.886268891161078    0.130131072008538    0.639677237860137  0.0000
  O3     O3        0.606514356152236    0.834002697002272    0.603341027868187  0.0000
  O2     O2        0.909277267404037    0.787913026375500    0.624537504853429  0.0000
  O2     O2        0.599155826877931    0.172845222356573    0.625267564230588  0.0000
  O2     O2        0.102377441328381    0.835503012170418    0.356061433927172  0.0000
  O2     O2        0.404356968454231    0.192353843134223    0.350384787830347  0.0000
  O2     O2        0.981851215807751    0.994615539666734    0.467923316171404  0.0000
  O2     O2        0.483160517492507    0.006493428364962    0.512823794426938  0.0000
  O2     O2        0.002290320101986    0.016400444799859    0.217258804142444  0.0000
  O2     O2        0.519352657896509    0.984172572213019    0.266987847383611  0.0000
  O2     O2        0.022582921546533    0.992791618420671    0.711330626707236  0.0000
  O2     O2        0.503529321865328    0.971844632502839    0.760501460721832  0.0000
  O3     O3        0.588044448741083    0.213010853978793    0.119129451758996  0.0000
  O2     O2        0.900874671879664    0.819221203580207    0.095240712844185  0.0000
  O2     O2        0.400771588347094    0.177295499140328    0.879101789078865  0.0000
  O2     O2        0.102948925894277    0.808216292553048    0.874703930409478  0.0000
  O2     O2        0.384985074224828    0.832422760827317    0.874765925777974  0.0000
  O2     O2        0.119119293600803    0.154714945779475    0.863660124601321  0.0000
  O2     O2        0.629110184245243    0.882670077250301    0.106150616884254  0.0000
  O2     O2        0.884317710918415    0.164120573385792    0.107764808471605  0.0000
  O2     O2        0.493391533051994    0.975269751120798    0.015435869008048  0.0000
  O2     O2        0.992025296264700    0.024371282887532    0.961157834968522  0.0000
  O3     O3        0.133062475199018    0.509246521843709    0.298600132706623  0.0000
  O2     O2        0.362270552744975    0.514689737920648    0.300389288589232  0.0000
  O2     O2        0.865754824567785    0.467801080954082    0.683529740608333  0.0000
  O3     O3        0.632729881803667    0.496140934781923    0.691802623889052  0.0000
  O3     O3        0.256511524136546    0.268609369554393    0.317745812275845  0.0000
  O2     O2        0.246102658927162    0.739440148042410    0.308924030865627  0.0000
  O2     O2        0.744680085543209    0.260038206253534    0.668244811517594  0.0000
  O3     O3        0.760891395703699    0.715153324735184    0.652097703925704  0.0000
  O3     O3        0.151253077837466    0.232129550868287    0.109841928747304  0.0000
  O2     O2        0.347387668010892    0.752026483497848    0.116798230319458  0.0000
  O2     O2        0.835126386684848    0.241227863757516    0.870300154136688  0.0000
  O3     O3        0.659271409433603    0.787297000546949    0.861831817031871  0.0000
  O2     O2        0.853491731318129    0.729422643829561    0.856899698511774  0.0000
  O3     O3        0.644148124425882    0.248284127652306    0.864230584924464  0.0000
  O2     O2        0.144629384704238    0.743849159537178    0.115882976598562  0.0000
  O2     O2        0.352725585696906    0.264751502992302    0.117768067354141  0.0000
  O3     O3        0.627147523981182    0.545530246349726    0.031774787333074  0.0000
  O2     O2        0.871031144430744    0.491954782489752    0.040784450979162  0.0000
  O2     O2        0.367924419421828    0.503587094477320    0.935773666489845  0.0000
  O2     O2        0.134378097945318    0.485498138935881    0.941539428925778  0.0000
  O3     O3        0.746623627281722    0.298186082896954    0.076700449330040  0.0000
  O2     O2        0.756685791863749    0.717867138374031    0.053697684644063  0.0000
  O2     O2        0.255349119323248    0.272202739508725    0.922563159399146  0.0000
  O2     O2        0.246752785483322    0.716696193174525    0.923730050705955  0.0000
