data_c00210.vasp
_audit_creation_method             Generated by GULP
_audit_author_name                 Salvador R. G. Balestra
_symmetry_space_group_name_H-M     'P 1             '
_symmetry_Int_Tables_number        1

loop_
_symmetry_equiv_pos_site_id
_symmetry_equiv_pos_as_xyz
_cell_length_a                       17.1269
_cell_length_b                        7.5908
_cell_length_c                       10.2881
_cell_angle_alpha                   90.5297
_cell_angle_beta                    89.7069
_cell_angle_gamma                   89.5805

loop_
_atom_site_label
_atom_site_type_symbol
_atom_site_fract_x
_atom_site_fract_y
_atom_site_fract_z
_atom_site_charge
  Ge     Ge        0.160189999999943    0.293909999999983    0.273440000000051  0.0000
  Ge     Ge        0.856321105341502    0.287920829393511    0.691297542811296  0.0000
  Ge     Ge        0.359912657768222    0.634751722279776    0.949707363276818  0.0000
  Si     Si        0.056694788842978    0.986090587409182    0.353709536749615  0.0000
  Si     Si        0.460837610819497    0.972111247055943    0.350953983828097  0.0000
  Si     Si        0.962170590263317    0.977844342039132    0.611854304150099  0.0000
  Si     Si        0.556203821534749    0.976980364497381    0.613904764115321  0.0000
  Si     Si        0.566351800990877    0.971476407119654    0.100298525133840  0.0000
  Si     Si        0.951156909718729    0.973823530025413    0.104774834018672  0.0000
  Si     Si        0.452856650670590    0.952445888653697    0.862267776663748  0.0000
  Si     Si        0.065259128941281    0.966245048896638    0.866158688818653  0.0000
  Si     Si        0.357022440498603    0.666699140266344    0.257853720288927  0.0000
  Si     Si        0.662232101181037    0.671572056134387    0.706154304022473  0.0000
  Si     Si        0.842559714474757    0.700794784066615    0.703877423868564  0.0000
  Si     Si        0.673079318905208    0.265004596055399    0.695667912527002  0.0000
  Si     Si        0.178014444877003    0.703760624814831    0.254290630909374  0.0000
  Si     Si        0.343024117428714    0.260544046490136    0.271794497456459  0.0000
  Si     Si        0.676493803114390    0.258488861952878    0.000413180176345  0.0000
  Si     Si        0.842271485837488    0.685988886356319    0.007186296958907  0.0000
  Si     Si        0.339546094773712    0.232662320847714    0.967430078325688  0.0000
  Si     Si        0.177811713271592    0.675117250447847    0.949046043975557  0.0000
  Si     Si        0.159282744222649    0.278709140270592    0.965354608944181  0.0000
  Si     Si        0.662093017095999    0.657399008614698    0.008197734103365  0.0000
  Si     Si        0.856775307721418    0.284721588585946    0.000233937269732  0.0000
  O3     O3        0.092143722031975    0.180078592387251    0.362934967497463  0.0000
  O2     O2        0.415505982735495    0.787216650855355    0.341396448881271  0.0000
  O3     O3        0.924149538148247    0.170134997698865    0.601692032087456  0.0000
  O2     O2        0.603376680853915    0.793264531722946    0.626083279097899  0.0000
  O2     O2        0.889325185793132    0.844677705591561    0.622646858860872  0.0000
  O2     O2        0.616262898735005    0.139070902317603    0.614643961689924  0.0000
  O2     O2        0.130656375103067    0.858404391137644    0.326434861003115  0.0000
  O2     O2        0.399051236336731    0.133401571698753    0.353707498563640  0.0000
  O2     O2        0.014559040645518    0.932892731497284    0.486686808479542  0.0000
  O2     O2        0.509860695093615    0.974901010063231    0.481211716794288  0.0000
  O2     O2        0.992262084650948    0.966629574133504    0.242523338919301  0.0000
  O2     O2        0.521553802253488    0.997716357639771    0.234263967261274  0.0000
  O2     O2        0.017011001815046    0.956343435148085    0.735550724142807  0.0000
  O2     O2        0.493506391117460    0.003909801603340    0.728446302357894  0.0000
  O2     O2        0.632899127344670    0.119005533797053    0.089580694710526  0.0000
  O2     O2        0.885681527496890    0.822367809165187    0.100963788927424  0.0000
  O2     O2        0.374929088875513    0.070584316734907    0.885009324238027  0.0000
  O2     O2        0.130171218625544    0.812103200523775    0.861861899403835  0.0000
  O3     O3        0.426384182654701    0.751254969152689    0.858922427848466  0.0000
  O2     O2        0.105024903212903    0.157729457966490    0.874782387404066  0.0000
  O2     O2        0.605420435251389    0.776860426890794    0.097418080372351  0.0000
  O2     O2        0.912491093071560    0.166759491264320    0.089991628779918  0.0000
  O2     O2        0.509144895778197    0.998853297907158    0.980770792599837  0.0000
  O2     O2        0.011674948187345    0.930740920634892    0.990423503128316  0.0000
  O3     O3        0.141824054567068    0.516786276279108    0.288753155855697  0.0000
  O2     O2        0.374242391828801    0.460626386363203    0.283661927340964  0.0000
  O3     O3        0.873901884344290    0.508271915217094    0.668748852619867  0.0000
  O2     O2        0.645734695777151    0.467190519702203    0.675234476573640  0.0000
  O3     O3        0.254820675312349    0.252168694594481    0.322580540358056  0.0000
  O2     O2        0.267934038695366    0.710604913103554    0.300658178661581  0.0000
  O3     O3        0.761329708443193    0.242263162350828    0.647672135040647  0.0000
  O2     O2        0.751112507489751    0.716531277135951    0.667664408131922  0.0000
  O3     O3        0.145798777795086    0.228445704086021    0.113994654385908  0.0000
  O3     O3        0.370105858252691    0.708804407345843    0.107723420735061  0.0000
  O3     O3        0.871012484864111    0.231770642052158    0.851696749740846  0.0000
  O2     O2        0.648235056070299    0.711271466336853    0.858772682519711  0.0000
  O2     O2        0.852385997724785    0.740801366811200    0.857374389906389  0.0000
  O2     O2        0.668648481554410    0.213769121456483    0.847790227538084  0.0000
  O2     O2        0.177780871238874    0.735689458380375    0.099672991414524  0.0000
  O2     O2        0.343934412997024    0.197244426021659    0.121579851005488  0.0000
  O2     O2        0.640999348083246    0.453175171840635    0.029435315006696  0.0000
  O2     O2        0.877240640761231    0.489691684443508    0.025444667376232  0.0000
  O3     O3        0.382645049121095    0.413682515271047    0.935922331045435  0.0000
  O2     O2        0.137596675816394    0.482719468910530    0.939273447836793  0.0000
  O2     O2        0.766995374660230    0.251738169270019    0.038950604788599  0.0000
  O2     O2        0.751473663325108    0.690535879653446    0.046709071913510  0.0000
  O2     O2        0.249514459068733    0.249384854382845    0.926714244535251  0.0000
  O3     O3        0.265509891631304    0.666896180301043    0.897409361928294  0.0000
