data_c00252.vasp
_audit_creation_method             Generated by GULP
_audit_author_name                 Salvador R. G. Balestra
_symmetry_space_group_name_H-M     'P 1             '
_symmetry_Int_Tables_number        1

loop_
_symmetry_equiv_pos_site_id
_symmetry_equiv_pos_as_xyz
_cell_length_a                       17.0528
_cell_length_b                        7.6113
_cell_length_c                       10.2867
_cell_angle_alpha                   91.2733
_cell_angle_beta                    89.6474
_cell_angle_gamma                   89.2285

loop_
_atom_site_label
_atom_site_type_symbol
_atom_site_fract_x
_atom_site_fract_y
_atom_site_fract_z
_atom_site_charge
  Ge     Ge        0.160189999999943    0.293909999999983    0.273440000000051  0.0000
  Ge     Ge        0.177673657494455    0.672667920158504    0.945234178713101  0.0000
  Ge     Ge        0.364116934260447    0.626479837857211    0.951359459273649  0.0000
  Si     Si        0.055966430113523    0.990539821255542    0.355024834756684  0.0000
  Si     Si        0.460135485284590    0.972281735506047    0.357320849030106  0.0000
  Si     Si        0.955890836795536    0.971179056871995    0.611146037596143  0.0000
  Si     Si        0.556112014438680    0.973450617538707    0.619886541214246  0.0000
  Si     Si        0.567752772533569    0.977249342979395    0.108531795174108  0.0000
  Si     Si        0.956429448841829    0.969720365333342    0.098498820038732  0.0000
  Si     Si        0.454572613594650    0.948258401611399    0.870576856216377  0.0000
  Si     Si        0.067265578525906    0.964029767220984    0.856749606776853  0.0000
  Si     Si        0.356317631191900    0.665602691354086    0.261212606776980  0.0000
  Si     Si        0.850719958146745    0.278708951924718    0.693678600794149  0.0000
  Si     Si        0.662439111377144    0.668250569546354    0.709577326889871  0.0000
  Si     Si        0.843730423722354    0.682161315381055    0.701724493354804  0.0000
  Si     Si        0.670169212630150    0.263594635598757    0.704244362205191  0.0000
  Si     Si        0.176500408862407    0.706498444775172    0.253401732971419  0.0000
  Si     Si        0.343557817260825    0.262723734573936    0.278315832286835  0.0000
  Si     Si        0.676097436777984    0.262497001481515    0.007407353077402  0.0000
  Si     Si        0.846482309329277    0.680251344893177    0.004828683283337  0.0000
  Si     Si        0.342130801124298    0.230985085324216    0.974441048126176  0.0000
  Si     Si        0.159612637148867    0.273842949683995    0.968966384803742  0.0000
  Si     Si        0.665136984796657    0.662840215532136    0.011749482700627  0.0000
  Si     Si        0.857088202760397    0.280425541518989    0.996947253028330  0.0000
  O3     O3        0.093140207751812    0.182096647145720    0.365411326435772  0.0000
  O2     O2        0.414250889274212    0.789612099249971    0.343645218908533  0.0000
  O2     O2        0.906622091342205    0.153842485993192    0.604762489136222  0.0000
  O2     O2        0.604122285919343    0.790087421337538    0.629142342977141  0.0000
  O2     O2        0.895486394780464    0.810269020525184    0.616320602630631  0.0000
  O2     O2        0.616609188627491    0.134497434765874    0.619455898265082  0.0000
  O2     O2        0.127883461155375    0.852865779861584    0.335844731728606  0.0000
  O2     O2        0.398888955567893    0.135590229346811    0.361265531876210  0.0000
  O2     O2        0.009656170307506    0.946005331418320    0.485339685423582  0.0000
  O2     O2        0.507430209983494    0.971111189078860    0.489584983386880  0.0000
  O2     O2        0.994200720595696    0.973737559031212    0.238919719684090  0.0000
  O2     O2        0.522998549342260    0.997621633265456    0.243548373070057  0.0000
  O2     O2        0.010437951596568    0.974626818220864    0.736009186723051  0.0000
  O2     O2        0.495012570668667    0.001726226029590    0.737358232239553  0.0000
  O2     O2        0.631900510051337    0.129902712344082    0.099861156198941  0.0000
  O2     O2        0.892259336700082    0.816469919234968    0.095559528303876  0.0000
  O2     O2        0.374131489957081    0.062107192925330    0.892660546744877  0.0000
  O3     O3        0.128785161893963    0.806428980489164    0.839113835325294  0.0000
  O3     O3        0.432858937220064    0.745296843327386    0.867147650506989  0.0000
  O2     O2        0.112467479753341    0.147639530444673    0.871024346244433  0.0000
  O2     O2        0.610045478897524    0.785959368471401    0.102515457310674  0.0000
  O2     O2        0.916453192397368    0.159447301193540    0.075586530411620  0.0000
  O2     O2        0.509226702040218    0.002091118776032    0.990330510092072  0.0000
  O2     O2        0.020550264520617    0.922011802459500    0.989031993873582  0.0000
  O3     O3        0.140305355834311    0.516266709659235    0.275651511833861  0.0000
  O2     O2        0.375765496023845    0.461437366653321    0.289491494639453  0.0000
  O2     O2        0.869175981375823    0.481631433550795    0.666522470192666  0.0000
  O2     O2        0.643729845706890    0.464441294351967    0.679875737203426  0.0000
  O3     O3        0.254656612960675    0.258008017232303    0.327962448015133  0.0000
  O2     O2        0.266393138863807    0.706303536721138    0.303618872055459  0.0000
  O2     O2        0.760525998660895    0.237859957197226    0.660522970266989  0.0000
  O2     O2        0.751943546298730    0.709938376367160    0.670550378779467  0.0000
  O3     O3        0.147546584638087    0.214575923059609    0.115901797496093  0.0000
  O3     O3        0.367983790861356    0.702916026318284    0.110718442035720  0.0000
  O2     O2        0.867272340197713    0.237226968380994    0.844023041130488  0.0000
  O2     O2        0.648634269921124    0.710734659168219    0.862322936909319  0.0000
  O2     O2        0.858132125201999    0.725892040042451    0.853683602515901  0.0000
  O2     O2        0.661813661915403    0.216295087483430    0.855778221334126  0.0000
  O3     O3        0.177434435372595    0.755357009988624    0.103114973759239  0.0000
  O2     O2        0.345002587192623    0.195242397072297    0.128319934798325  0.0000
  O2     O2        0.644926529877032    0.460599931844253    0.037928923238925  0.0000
  O2     O2        0.878150519060177    0.482816998600580    0.028596542341253  0.0000
  O3     O3        0.389430082935835    0.405425387178439    0.942903347361708  0.0000
  O3     O3        0.131774848403969    0.471468215888679    0.948054179750522  0.0000
  O2     O2        0.767979450706236    0.245004688122088    0.039400095104967  0.0000
  O2     O2        0.755540969091212    0.696709033378785    0.044132310148405  0.0000
  O2     O2        0.252444162445177    0.267517596922938    0.934649187027882  0.0000
  O1     O1        0.272356546162535    0.658004599041664    0.891265390374119  0.0000
