data_c00243.vasp
_audit_creation_method             Generated by GULP
_audit_author_name                 Salvador R. G. Balestra
_symmetry_space_group_name_H-M     'P 1             '
_symmetry_Int_Tables_number        1

loop_
_symmetry_equiv_pos_site_id
_symmetry_equiv_pos_as_xyz
_cell_length_a                       17.1271
_cell_length_b                        7.6251
_cell_length_c                       10.2431
_cell_angle_alpha                   90.2304
_cell_angle_beta                    90.6621
_cell_angle_gamma                   89.8457

loop_
_atom_site_label
_atom_site_type_symbol
_atom_site_fract_x
_atom_site_fract_y
_atom_site_fract_z
_atom_site_charge
  Ge     Ge        0.160189999999943    0.293909999999983    0.273440000000051  0.0000
  Ge     Ge        0.843550502986715    0.676676814432183    0.016364590692202  0.0000
  Ge     Ge        0.326911191380991    0.715752642100884    0.949952936111137  0.0000
  Si     Si        0.043568224577725    0.007909557810838    0.353398313491712  0.0000
  Si     Si        0.447391206277030    0.014433348922696    0.352536138234331  0.0000
  Si     Si        0.943383989165089    0.994284039780500    0.609176907918399  0.0000
  Si     Si        0.546836548664503    0.011240952416445    0.613373160141506  0.0000
  Si     Si        0.548135885446202    0.995419959803449    0.099335685943002  0.0000
  Si     Si        0.940038935923327    0.994339330099378    0.100318719192317  0.0000
  Si     Si        0.436157411839175    0.003198426216823    0.859050362180687  0.0000
  Si     Si        0.049367022258299    0.994425364195872    0.859170566285588  0.0000
  Si     Si        0.330815448327237    0.727659289091034    0.259661688444450  0.0000
  Si     Si        0.830781277287681    0.288455082165728    0.701466655947117  0.0000
  Si     Si        0.660125428782158    0.715244799399396    0.703329688610809  0.0000
  Si     Si        0.839932256885259    0.693297270531077    0.706193790337291  0.0000
  Si     Si        0.651519357025512    0.313474535622518    0.693319797268534  0.0000
  Si     Si        0.150977240023920    0.703428114206825    0.262833951864624  0.0000
  Si     Si        0.343060686735133    0.320812420113427    0.267070808522345  0.0000
  Si     Si        0.645815677631188    0.307112520311193    0.997466267227777  0.0000
  Si     Si        0.339704696554831    0.313304875423419    0.962612361132524  0.0000
  Si     Si        0.144772100657910    0.680874612530641    0.956887379291281  0.0000
  Si     Si        0.158748377962956    0.281733284999170    0.964064374052892  0.0000
  Si     Si        0.659711135609674    0.704398562066431    0.009650134638550  0.0000
  Si     Si        0.825980911624300    0.273022556742595    0.006841759974292  0.0000
  O3     O3        0.103584573869612    0.165844784170656    0.371909158614670  0.0000
  O2     O2        0.382859046327136    0.861228678502831    0.344836377174313  0.0000
  O2     O2        0.884218788684243    0.158888662162826    0.617337034528297  0.0000
  O2     O2        0.607222137392565    0.849037916576623    0.621022286213168  0.0000
  O2     O2        0.896400721358534    0.812657668150266    0.620116017043608  0.0000
  O2     O2        0.595028579265082    0.192645644662843    0.605292870425242  0.0000
  O2     O2        0.093860465138868    0.830034450565588    0.341957062361808  0.0000
  O2     O2        0.405924069362954    0.205104437344522    0.347286145264563  0.0000
  O2     O2        0.983432594811822    0.994058879649102    0.469916166540009  0.0000
  O2     O2        0.492285142024229    0.992416700724578    0.488177611942652  0.0000
  O2     O2        0.993272518563380    0.044716915673609    0.222899279143127  0.0000
  O2     O2        0.510966963858415    0.995291786916806    0.240607371283857  0.0000
  O2     O2        0.011282084990325    0.010575336715015    0.717179314229604  0.0000
  O2     O2        0.492463115690349    0.012680714932464    0.738295684971328  0.0000
  O2     O2        0.587434240288820    0.184299769931720    0.075810323235850  0.0000
  O3     O3        0.909319900823813    0.796852396244426    0.108185818569199  0.0000
  O2     O2        0.392878501089275    0.188875794363758    0.874837976197187  0.0000
  O2     O2        0.082981054674815    0.797600433676084    0.875820966764815  0.0000
  O3     O3        0.372582887558610    0.852248669845169    0.842626691975498  0.0000
  O2     O2        0.117109493531029    0.140250052023135    0.870229915002489  0.0000
  O2     O2        0.611726130644370    0.840763596488540    0.096306644213786  0.0000
  O2     O2        0.863940837916326    0.119955877593400    0.093400727752731  0.0000
  O2     O2        0.483060693723184    0.952522688140472    0.990744584951810  0.0000
  O2     O2        0.986263471038391    0.033909501378187    0.968691513819089  0.0000
  O3     O3        0.128252425731292    0.506357615000253    0.292843767218480  0.0000
  O2     O2        0.361247525146306    0.528380037394748    0.280595000242901  0.0000
  O2     O2        0.859355519016791    0.488132142786467    0.682197947551765  0.0000
  O2     O2        0.631613479750831    0.517831413794728    0.670650570139156  0.0000
  O3     O3        0.257343012477800    0.282093112953418    0.318911272657400  0.0000
  O2     O2        0.240790980034578    0.740591558614200    0.305330237364771  0.0000
  O2     O2        0.740814689524868    0.273215250245627    0.654461886393616  0.0000
  O2     O2        0.750480937732987    0.734479314145430    0.664193734737443  0.0000
  O3     O3        0.151355554124397    0.224552647789435    0.113200544095210  0.0000
  O3     O3        0.335164387500359    0.784102598911049    0.109962655617599  0.0000
  O2     O2        0.836437875500240    0.235142896287614    0.852835481118968  0.0000
  O2     O2        0.653699536949639    0.756812486879263    0.857098817951052  0.0000
  O3     O3        0.854509114163189    0.740358742790292    0.856289733938425  0.0000
  O2     O2        0.637514016287326    0.264075269576678    0.844057993756925  0.0000
  O2     O2        0.142215255622613    0.740296389669306    0.108182648503149  0.0000
  O2     O2        0.348680508186310    0.264572839811130    0.115300529403309  0.0000
  O2     O2        0.624087194585907    0.509204850427321    0.026743632715508  0.0000
  O3     O3        0.864725276373372    0.458297457740584    0.040073306511915  0.0000
  O3     O3        0.366470028351209    0.508714175264694    0.936661718335179  0.0000
  O2     O2        0.121017361485005    0.475700121368666    0.944896917933277  0.0000
  O2     O2        0.734764462352561    0.274473647124264    0.042563135844565  0.0000
  O3     O3        0.747884543830646    0.710623347970492    0.059280412782976  0.0000
  O2     O2        0.249040026086277    0.289614702855418    0.922764926916472  0.0000
  O3     O3        0.230110323418663    0.710823903893370    0.902617397932033  0.0000
