data_c00247.vasp
_audit_creation_method             Generated by GULP
_audit_author_name                 Salvador R. G. Balestra
_symmetry_space_group_name_H-M     'P 1             '
_symmetry_Int_Tables_number        1

loop_
_symmetry_equiv_pos_site_id
_symmetry_equiv_pos_as_xyz
_cell_length_a                       17.0782
_cell_length_b                        7.6099
_cell_length_c                       10.3267
_cell_angle_alpha                   90.8942
_cell_angle_beta                    90.0322
_cell_angle_gamma                   89.4186

loop_
_atom_site_label
_atom_site_type_symbol
_atom_site_fract_x
_atom_site_fract_y
_atom_site_fract_z
_atom_site_charge
  Ge     Ge        0.160189999999943    0.293909999999983    0.273440000000051  0.0000
  Ge     Ge        0.342071378270066    0.224643902316513    0.965339136619322  0.0000
  Ge     Ge        0.181807139331460    0.690548855535115    0.955689465515475  0.0000
  Si     Si        0.058067420233410    0.983449919336597    0.355458971118362  0.0000
  Si     Si        0.462230030251420    0.957596077271503    0.354388143587140  0.0000
  Si     Si        0.958764551067005    0.958063843270430    0.610963944045760  0.0000
  Si     Si        0.561682151258237    0.953755123489843    0.613235248936447  0.0000
  Si     Si        0.566005996022699    0.972006826980434    0.103467632512783  0.0000
  Si     Si        0.956277123822057    0.958330373039973    0.099763522475418  0.0000
  Si     Si        0.456051989481980    0.941088050385619    0.864103408755881  0.0000
  Si     Si        0.066413557741538    0.973321488608760    0.859954810093789  0.0000
  Si     Si        0.359289285870112    0.647768064442272    0.261378566940255  0.0000
  Si     Si        0.852899472791881    0.261457810966024    0.699704271486310  0.0000
  Si     Si        0.667753110047559    0.654128760027409    0.701236281580606  0.0000
  Si     Si        0.848888329949053    0.665238698867038    0.703451764999321  0.0000
  Si     Si        0.671786485625327    0.250213641247534    0.703205135756881  0.0000
  Si     Si        0.178016450681046    0.699570644432492    0.264352045582898  0.0000
  Si     Si        0.345858390377618    0.245508602557748    0.271354091740620  0.0000
  Si     Si        0.674439991607165    0.257590393377850    0.004739752787215  0.0000
  Si     Si        0.847235193080616    0.668703313569701    0.005031309435452  0.0000
  Si     Si        0.363713967270016    0.631752915925154    0.958388976623530  0.0000
  Si     Si        0.158404094353831    0.283970431596512    0.966041183780706  0.0000
  Si     Si        0.665683684915670    0.658959741955303    0.002492258919969  0.0000
  Si     Si        0.855949326143445    0.267465846082389    0.000982563626977  0.0000
  O3     O3        0.093966138205168    0.176216958796052    0.362212244237539  0.0000
  O2     O2        0.418270128421339    0.771642542066060    0.340712257049496  0.0000
  O2     O2        0.906941104226147    0.136546473563417    0.610260440723407  0.0000
  O2     O2        0.613747952313776    0.775713590732721    0.612166232837284  0.0000
  O2     O2        0.901911718166030    0.790906242214875    0.618255273470764  0.0000
  O2     O2        0.618664881187708    0.121487359320991    0.617504219744834  0.0000
  O2     O2        0.132493936778825    0.851387212222966    0.344586961585492  0.0000
  O2     O2        0.399066885775675    0.116604679301514    0.358463985250591  0.0000
  O2     O2        0.008337850873269    0.940970432000426    0.481339229384088  0.0000
  O2     O2        0.509266139880096    0.959829877484027    0.487055650509974  0.0000
  O2     O2        0.000194969468537    0.957997700176191    0.234857759197822  0.0000
  O2     O2        0.524963343589337    0.981140963817678    0.241235925417009  0.0000
  O2     O2        0.018144856536799    0.962281553326174    0.729366514713857  0.0000
  O2     O2        0.504937222097861    0.957580487528788    0.735203781925500  0.0000
  O2     O2        0.628528296556413    0.128848917115478    0.097816838728116  0.0000
  O2     O2        0.893632102009524    0.801177598867482    0.097939053945677  0.0000
  O3     O3        0.383081021506349    0.073411588549296    0.860689878330024  0.0000
  O3     O3        0.136393589053289    0.833149035031582    0.852905310079331  0.0000
  O2     O2        0.428686698942115    0.740115594713056    0.880231838424819  0.0000
  O2     O2        0.098128174891755    0.170389149862842    0.879161699959331  0.0000
  O2     O2        0.609991256717786    0.784146227490611    0.087985898807882  0.0000
  O2     O2        0.912149094934638    0.145483493237263    0.085351366349501  0.0000
  O2     O2        0.504126265017008    0.005112749706433    0.990077375088743  0.0000
  O2     O2        0.015906247872014    0.917672648174369    0.983795246034825  0.0000
  O3     O3        0.157221928222082    0.511658599236529    0.321441359459560  0.0000
  O2     O2        0.362361336614490    0.448917569520994    0.313304618507617  0.0000
  O2     O2        0.873408816794599    0.463654792967147    0.672771593755090  0.0000
  O2     O2        0.647308068464028    0.450874460085186    0.673995159452762  0.0000
  O3     O3        0.254305716510431    0.211438586417715    0.289841500896337  0.0000
  O2     O2        0.271723332517736    0.726785260029506    0.275465208046876  0.0000
  O2     O2        0.762662474191165    0.222061249153374    0.666336076939570  0.0000
  O2     O2        0.757962432525194    0.692227389403645    0.667469661045757  0.0000
  O3     O3        0.130148835031794    0.284220589354132    0.114137055985911  0.0000
  O2     O2        0.384163071126397    0.642991425062563    0.111369652197074  0.0000
  O2     O2        0.869636423054082    0.219449429941819    0.849956304557153  0.0000
  O2     O2        0.651528128548646    0.702048761046681    0.851744814758939  0.0000
  O2     O2        0.861652624477129    0.712937777772711    0.854619796408354  0.0000
  O2     O2        0.659684013049809    0.207451671456543    0.854332816621521  0.0000
  O3     O3        0.153888744812066    0.715559417413774    0.115085499368879  0.0000
  O3     O3        0.371206374655651    0.207219984729363    0.124169637280853  0.0000
  O2     O2        0.644922898012660    0.457103599882899    0.031056422456230  0.0000
  O2     O2        0.876937544699448    0.470204160429817    0.030716586081163  0.0000
  O3     O3        0.363271048972261    0.432855500793725    0.910196144216702  0.0000
  O3     O3        0.162074005295770    0.476486074361779    0.908880985703861  0.0000
  O2     O2        0.765909660630968    0.236212929178291    0.037583499976258  0.0000
  O2     O2        0.755916137205835    0.691284430694052    0.038516890750845  0.0000
  O3     O3        0.242982296267590    0.190850031606433    0.962279696327206  0.0000
  O3     O3        0.280393343479681    0.725164248307232    0.938786622410276  0.0000
