data_c00203.vasp
_audit_creation_method             Generated by GULP
_audit_author_name                 Salvador R. G. Balestra
_symmetry_space_group_name_H-M     'P 1             '
_symmetry_Int_Tables_number        1

loop_
_symmetry_equiv_pos_site_id
_symmetry_equiv_pos_as_xyz
_cell_length_a                       17.1689
_cell_length_b                        7.6254
_cell_length_c                       10.2126
_cell_angle_alpha                   89.6335
_cell_angle_beta                    89.9746
_cell_angle_gamma                   90.2511

loop_
_atom_site_label
_atom_site_type_symbol
_atom_site_fract_x
_atom_site_fract_y
_atom_site_fract_z
_atom_site_charge
  Ge     Ge        0.160189999999943    0.293909999999983    0.273440000000051  0.0000
  Ge     Ge        0.328202594814373    0.745380626111311    0.278428610051188  0.0000
  Ge     Ge        0.344389014073119    0.351303884485471    0.960034551039572  0.0000
  Si     Si        0.040837907380610    0.006978172765660    0.359586197017115  0.0000
  Si     Si        0.447788274306170    0.030461474422500    0.358864527499842  0.0000
  Si     Si        0.942966252127897    0.012835329260444    0.618315093710490  0.0000
  Si     Si        0.547298474557431    0.018985074130783    0.615396557102805  0.0000
  Si     Si        0.548390893367765    0.016108187767751    0.101764553396252  0.0000
  Si     Si        0.938725057963348    0.020878952085005    0.103437939296480  0.0000
  Si     Si        0.438455603810808    0.037320953459160    0.857132557767928  0.0000
  Si     Si        0.050795964695047    0.015993596777132    0.862834763377004  0.0000
  Si     Si        0.832034518141451    0.307861023066410    0.717256905039999  0.0000
  Si     Si        0.657470951036683    0.724211640369309    0.713060940552358  0.0000
  Si     Si        0.836895916359768    0.711164393433007    0.714590274829857  0.0000
  Si     Si        0.652886198768219    0.320684645732108    0.715782002094163  0.0000
  Si     Si        0.145968403588175    0.705451060525327    0.279331234069125  0.0000
  Si     Si        0.343416139364221    0.334220520936307    0.272835967079651  0.0000
  Si     Si        0.649913670089671    0.326255527262101    0.021647147233421  0.0000
  Si     Si        0.838002462148309    0.710818132117672    0.020334378240803  0.0000
  Si     Si        0.146576240612323    0.706067513710368    0.973520555100299  0.0000
  Si     Si        0.327460142729398    0.755269780835430    0.966839416090469  0.0000
  Si     Si        0.159976682311848    0.304999162145195    0.962967198958707  0.0000
  Si     Si        0.657973725067010    0.724809415861220    0.018876630629243  0.0000
  Si     Si        0.829445543164248    0.312561476126489    0.023600558304638  0.0000
  O3     O3        0.105453248393933    0.157613575585663    0.371319887973494  0.0000
  O3     O3        0.384164916585409    0.878206816867941    0.375895195412777  0.0000
  O2     O2        0.886779155015122    0.179593116883267    0.635830026963793  0.0000
  O2     O2        0.604087180819861    0.852024807463708    0.627116142819184  0.0000
  O2     O2        0.893531578735323    0.833949628516280    0.630375867858143  0.0000
  O2     O2        0.595671098246408    0.197906169290854    0.634073937500953  0.0000
  O2     O2        0.083612969903267    0.818722641017958    0.360498778708906  0.0000
  O2     O2        0.403980463804633    0.217023321069114    0.356483264056693  0.0000
  O2     O2        0.978117849905772    0.018523098184857    0.474067404349952  0.0000
  O2     O2        0.511886583170690    0.024812900987706    0.471542783940062  0.0000
  O2     O2        0.996397008361511    0.035721183051426    0.223437266400696  0.0000
  O2     O2        0.491405921895158    0.996734613579908    0.222669378104544  0.0000
  O2     O2        0.014446821639335    0.016271562513693    0.718940549183702  0.0000
  O2     O2        0.476083329540431    0.002277494985307    0.716505235368733  0.0000
  O2     O2        0.593585183361851    0.202501921205142    0.106941545838198  0.0000
  O2     O2        0.893297179731127    0.834783325659806    0.106004476766977  0.0000
  O3     O3        0.408263322779163    0.234496316344892    0.865315111277336  0.0000
  O2     O2        0.090595714450023    0.827743256939793    0.887342220389365  0.0000
  O2     O2        0.364767602680190    0.908103200949895    0.877676618963846  0.0000
  O2     O2        0.112946133167147    0.174139582646714    0.868344475008926  0.0000
  O2     O2        0.610339057881802    0.858200148973915    0.107703414041632  0.0000
  O2     O2        0.876742215572019    0.178475066585260    0.113668552310290  0.0000
  O2     O2        0.501470514621411    0.996726558715882    0.968091624002132  0.0000
  O2     O2        0.983837507003572    0.047521628008699    0.968139368106337  0.0000
  O3     O3        0.145800887328388    0.506399137856675    0.326347673607187  0.0000
  O3     O3        0.341874959167135    0.530056130430010    0.326203388380857  0.0000
  O2     O2        0.856279082292038    0.508423642647571    0.685646604341668  0.0000
  O2     O2        0.633399413458992    0.523312187928939    0.684282966545068  0.0000
  O3     O3        0.258119755582549    0.247545778036721    0.284670858470262  0.0000
  O3     O3        0.230639678739454    0.791947110806283    0.297123669943417  0.0000
  O2     O2        0.741956948294084    0.278210745262511    0.677432619761882  0.0000
  O2     O2        0.747833582401909    0.752748350417628    0.675628064010175  0.0000
  O3     O3        0.134556451715462    0.268352440475537    0.111476777520591  0.0000
  O3     O3        0.354056128217936    0.773961023063984    0.116347321980827  0.0000
  O2     O2        0.841196456050149    0.267404313337797    0.871098550897589  0.0000
  O2     O2        0.645935886084155    0.768450644227439    0.865710208577084  0.0000
  O2     O2        0.850779109539962    0.752871146618166    0.867140973951173  0.0000
  O2     O2        0.638686394233285    0.281241270416866    0.868937510692100  0.0000
  O2     O2        0.122348571319941    0.713677789654695    0.125456901982976  0.0000
  O3     O3        0.370390492695682    0.333299670141021    0.122090402818726  0.0000
  O2     O2        0.627540368911935    0.527816537797055    0.048686772646085  0.0000
  O2     O2        0.859667568529342    0.509494835395262    0.051572173808740  0.0000
  O3     O3        0.351537982735961    0.567357291246403    0.911736716230194  0.0000
  O2     O2        0.140025984869367    0.506684289288754    0.923659912208173  0.0000
  O2     O2        0.739045232069619    0.293908315087953    0.062020655709752  0.0000
  O2     O2        0.748292999770366    0.744286113873026    0.056960754263279  0.0000
  O3     O3        0.250820515301559    0.273686020202037    0.943313064209510  0.0000
  O2     O2        0.234342769752898    0.775673453081676    0.959674593366760  0.0000
