data_c00207.vasp
_audit_creation_method             Generated by GULP
_audit_author_name                 Salvador R. G. Balestra
_symmetry_space_group_name_H-M     'P 1             '
_symmetry_Int_Tables_number        1

loop_
_symmetry_equiv_pos_site_id
_symmetry_equiv_pos_as_xyz
_cell_length_a                       17.1674
_cell_length_b                        7.6485
_cell_length_c                       10.2783
_cell_angle_alpha                   88.9990
_cell_angle_beta                    89.7326
_cell_angle_gamma                   89.9944

loop_
_atom_site_label
_atom_site_type_symbol
_atom_site_fract_x
_atom_site_fract_y
_atom_site_fract_z
_atom_site_charge
  Ge     Ge        0.160189999999943    0.293909999999983    0.273440000000051  0.0000
  Ge     Ge        0.855255320511682    0.306450999567839    0.694767054724211  0.0000
  Ge     Ge        0.665412721813746    0.281224909098922    0.695612433629680  0.0000
  Si     Si        0.052904012454456    0.986695164094162    0.352806860794719  0.0000
  Si     Si        0.456029567889381    0.977255908861327    0.358195847423042  0.0000
  Si     Si        0.959497955511416    0.000999701817710    0.611946959852324  0.0000
  Si     Si        0.550261568661305    0.992400278249013    0.618781863708713  0.0000
  Si     Si        0.564228183843054    0.973818599157322    0.113968512369656  0.0000
  Si     Si        0.947265057334665    0.978939508209446    0.100546293398613  0.0000
  Si     Si        0.449234330621143    0.988630927716440    0.876316096827899  0.0000
  Si     Si        0.063269650697961    0.992913300063624    0.861889722036149  0.0000
  Si     Si        0.349813285749640    0.678187434444842    0.262873602087237  0.0000
  Si     Si        0.660490158709123    0.692101503744208    0.708633004737439  0.0000
  Si     Si        0.840634257435974    0.714824934297679    0.710365503233322  0.0000
  Si     Si        0.169652632978776    0.703467982782298    0.264055392436106  0.0000
  Si     Si        0.342666504995984    0.275504119667416    0.269607330360108  0.0000
  Si     Si        0.667640231757591    0.265865510613404    0.002008813755925  0.0000
  Si     Si        0.839542454899170    0.684407418499606    0.016828299539317  0.0000
  Si     Si        0.339153040405615    0.280054687319749    0.963392853466471  0.0000
  Si     Si        0.170709679331458    0.698352918184916    0.960232423624725  0.0000
  Si     Si        0.350841626020924    0.675803409474383    0.959535223206037  0.0000
  Si     Si        0.159684696917952    0.299101064393269    0.963290838909733  0.0000
  Si     Si        0.659640155463938    0.664707672581565    0.014092157400179  0.0000
  Si     Si        0.851824642354318    0.289588219198521    0.002003887374083  0.0000
  O3     O3        0.093570231052287    0.173699896251290    0.362235025888393  0.0000
  O2     O2        0.406003245512176    0.800994355132171    0.344192610131318  0.0000
  O3     O3        0.921988962777989    0.191826639142063    0.603648832903457  0.0000
  O2     O2        0.604613807092562    0.821772018218629    0.629879836031731  0.0000
  O2     O2        0.888636702943709    0.868133716308893    0.640671777475734  0.0000
  O3     O3        0.605566802839140    0.158428580494475    0.599405191646381  0.0000
  O2     O2        0.122225427423222    0.844879345203855    0.345141634606069  0.0000
  O2     O2        0.401381756570336    0.147197873189400    0.344501674872587  0.0000
  O2     O2        0.999810212684971    0.948402331928624    0.477857561770388  0.0000
  O2     O2        0.491368686570851    0.972817406089871    0.500867965629335  0.0000
  O2     O2        0.998229640409830    0.972762399514281    0.228270542536654  0.0000
  O2     O2        0.526651141384717    0.985109283048997    0.255710500370982  0.0000
  O2     O2        0.025142349282314    0.986926425017308    0.721631633723745  0.0000
  O2     O2        0.500129126053134    0.014698123648457    0.748990315517502  0.0000
  O2     O2        0.629083767606269    0.125609419918903    0.100824040853465  0.0000
  O2     O2        0.887914779028744    0.815609835018452    0.105042027048389  0.0000
  O2     O2        0.385563131139606    0.142825488992050    0.877732277382594  0.0000
  O2     O2        0.125553270120114    0.835623048966203    0.869494083885640  0.0000
  O2     O2        0.406424888199315    0.800382586475247    0.873138904881974  0.0000
  O2     O2        0.104881261097916    0.180623401406966    0.874725778342055  0.0000
  O2     O2        0.603237279539286    0.783029092998423    0.100515719265711  0.0000
  O2     O2        0.899110754036676    0.159876829531720    0.097436098731191  0.0000
  O2     O2        0.499647192775479    0.005971335163974    0.005350764598215  0.0000
  O2     O2        0.999672140455055    0.961848728021746    0.973130189073814  0.0000
  O3     O3        0.139821147573673    0.511190800406800    0.298033434064803  0.0000
  O2     O2        0.368646878540763    0.475586328599011    0.294509569939420  0.0000
  O3     O3        0.864592352233106    0.527010191424281    0.658768824200156  0.0000
  O3     O3        0.646811021636337    0.498616899573088    0.661579579821086  0.0000
  O3     O3        0.254980336129126    0.248775102368761    0.318598424820943  0.0000
  O2     O2        0.260657060183080    0.718553202132312    0.300938906890857  0.0000
  O1     O1        0.761735887383729    0.242287717438711    0.666005739979954  0.0000
  O2     O2        0.749661594088042    0.749288527257681    0.681566923038828  0.0000
  O3     O3        0.146816413088469    0.243474816710112    0.112093463531378  0.0000
  O2     O2        0.363506794950816    0.720310822409674    0.110504444405052  0.0000
  O3     O3        0.880397296993082    0.266370808069329    0.855694758859657  0.0000
  O2     O2        0.643139719537853    0.705999257319153    0.862796994098660  0.0000
  O2     O2        0.855132374461640    0.722034242293085    0.864895047307919  0.0000
  O3     O3        0.641953497276995    0.231061294679532    0.856089270512524  0.0000
  O2     O2        0.159481054309724    0.746637869781025    0.110779716354935  0.0000
  O2     O2        0.345631514126040    0.235056968143878    0.116254969394369  0.0000
  O2     O2        0.642334375423213    0.460938706746270    0.044735707814828  0.0000
  O2     O2        0.866182294325940    0.486597294922144    0.050913044982741  0.0000
  O2     O2        0.372953318061438    0.474340481492570    0.933719850185806  0.0000
  O2     O2        0.137729151648127    0.502899322093806    0.939224123388753  0.0000
  O2     O2        0.760503927100397    0.246029683385755    0.006922955055650  0.0000
  O2     O2        0.748564248841766    0.709329084338780    0.049007541190787  0.0000
  O2     O2        0.249275678030477    0.270112976340111    0.922329931651241  0.0000
  O2     O2        0.261332755974097    0.708505174953302    0.921249062124407  0.0000
