data_c00002.vasp
_audit_creation_method             Generated by GULP
_audit_author_name                 Salvador R. G. Balestra
_symmetry_space_group_name_H-M     'P 1             '
_symmetry_Int_Tables_number        1

loop_
_symmetry_equiv_pos_site_id
_symmetry_equiv_pos_as_xyz
_cell_length_a                       17.6571
_cell_length_b                        7.8895
_cell_length_c                       10.2498
_cell_angle_alpha                   89.5883
_cell_angle_beta                    90.5708
_cell_angle_gamma                   88.0966

loop_
_atom_site_label
_atom_site_type_symbol
_atom_site_fract_x
_atom_site_fract_y
_atom_site_fract_z
_atom_site_charge
  Ge     Ge        0.052090000000021    0.000000000000000    0.372269999999958  0.0000
  Ge     Ge        0.439777777786557    0.950997832087164    0.364458541909150  0.0000
  Ge     Ge        0.942784210084923    0.951460366087428    0.616924700151624  0.0000
  Ge     Ge        0.544281108377517    0.012543567948855    0.614514442120687  0.0000
  Ge     Ge        0.550973950231261    0.008560853252212    0.124878868859113  0.0000
  Ge     Ge        0.941506550174663    0.947217883790224    0.125897894081952  0.0000
  Ge     Ge        0.445706753921014    0.948414253107556    0.871975303037159  0.0000
  Ge     Ge        0.043520010202712    0.013281742018500    0.873583153944443  0.0000
  Ge     Ge        0.144654855404009    0.314358873586100    0.253448789411846  0.0000
  Ge     Ge        0.352813096283179    0.630032652426928    0.250618760138331  0.0000
  Ge     Ge        0.821348633278799    0.238552736549872    0.691008751571344  0.0000
  Ge     Ge        0.666552378927070    0.724072417268903    0.690105915415175  0.0000
  Ge     Ge        0.846774467929912    0.638795044786480    0.687619046508767  0.0000
  Ge     Ge        0.641024226542365    0.323470909321852    0.687826441329260  0.0000
  Ge     Ge        0.170249611882913    0.710597460698994    0.258134497937549  0.0000
  Ge     Ge        0.640187626887380    0.322350366769379    0.004310271701569  0.0000
  Ge     Ge        0.851090310765128    0.635595637883274    0.004201656573597  0.0000
  Ge     Ge        0.321211340322228    0.238804834915018    0.938563917231148  0.0000
  Ge     Ge        0.167384386350286    0.722386648754155    0.942723954284977  0.0000
  Ge     Ge        0.348022727575670    0.638155086269198    0.936290357505216  0.0000
  Ge     Ge        0.142109230165280    0.322746827847618    0.934962325533423  0.0000
  Ge     Ge        0.669770370480805    0.722113228932602    0.006757078343177  0.0000
  Ge     Ge        0.821585696112390    0.236046228918915    0.007664632934368  0.0000
  Si     Si        0.323533422491305    0.239834967792148    0.248795081738046  0.0000
  O1     O1        0.081257413146908    0.201017245490417    0.339703532944995  0.0000
  O1     O1        0.414975646220588    0.744720505587306    0.341324724724028  0.0000
  O1     O1        0.870131614735601    0.099972440622845    0.592859335560797  0.0000
  O1     O1        0.616726780152401    0.864188883951218    0.591648174170524  0.0000
  O1     O1        0.908738644896718    0.752173277663787    0.595875879913658  0.0000
  O1     O1        0.578362389049026    0.212223324131342    0.595183267513287  0.0000
  O1     O1        0.127414796655653    0.861230477575517    0.353687257638017  0.0000
  O3     O3        0.364533764805796    0.090021318656786    0.330950663895645  0.0000
  O1     O1        0.022515956809251    0.991118746878837    0.532164349596909  0.0000
  O1     O1        0.464638191422203    0.974992314012372    0.526316539594742  0.0000
  O1     O1        0.972441270834862    0.949087792037582    0.285513136604015  0.0000
  O1     O1        0.521071790007519    0.999021831457600    0.283841262273524  0.0000
  O1     O1        0.967287238435184    0.968317063560735    0.780750146022176  0.0000
  O1     O1        0.520556028869734    0.992349155715227    0.777730803373526  0.0000
  O1     O1        0.575203949063866    0.213531492003870    0.091167224743615  0.0000
  O1     O1        0.917223256140134    0.743048816891397    0.090350378114840  0.0000
  O1     O1        0.372677935058933    0.097410293728611    0.849652332255599  0.0000
  O1     O1        0.117274295616596    0.867755983936056    0.850727826984065  0.0000
  O1     O1        0.409339561845746    0.751548250781117    0.844542529992658  0.0000
  O1     O1        0.077150202505708    0.213358761384853    0.847234204609828  0.0000
  O1     O1        0.627890161659317    0.873080450867172    0.102942879906183  0.0000
  O1     O1        0.864500992532244    0.083814796297936    0.104703520359811  0.0000
  O1     O1        0.474916517509127    0.950051776306695    0.032854836423470  0.0000
  O1     O1        0.016572187630321    0.008787621701713    0.035010736718505  0.0000
  O1     O1        0.151699503791939    0.512236251827040    0.318702382875295  0.0000
  O3     O3        0.342751360563633    0.423466613812457    0.307470733520344  0.0000
  O1     O1        0.833952755826727    0.440425174148987    0.628940679017561  0.0000
  O1     O1        0.653336554234010    0.522911185856285    0.629069903881957  0.0000
  O3     O3        0.233767001187699    0.213634659070941    0.251714190121282  0.0000
  O1     O1        0.266090430394397    0.734372360497101    0.256353976073675  0.0000
  O1     O1        0.725782954451739    0.207106259805964    0.691521515746019  0.0000
  O1     O1        0.762153544152550    0.755399049287797    0.690639573993124  0.0000
  O1     O1        0.114316934337266    0.337377720559317    0.095250546821876  0.0000
  O1     O1        0.383497741316274    0.621573503442985    0.093467933095007  0.0000
  O1     O1        0.854066460358832    0.222752296207777    0.850006831003059  0.0000
  O1     O1        0.635573637587684    0.737568907724865    0.848994088201263  0.0000
  O1     O1        0.879976889468458    0.616905451971242    0.845335795655144  0.0000
  O1     O1        0.609254822843707    0.342049246892257    0.845344058690024  0.0000
  O1     O1        0.135483922799811    0.731222017693575    0.101244596148497  0.0000
  O3     O3        0.352236787159713    0.233166790244183    0.100294580296645  0.0000
  O1     O1        0.651925323880272    0.521626373937229    0.065416334208164  0.0000
  O1     O1        0.840036871500559    0.435487032825270    0.066133857125133  0.0000
  O1     O1        0.335003403930952    0.440313615801930    0.877050971119337  0.0000
  O1     O1        0.153376018043491    0.523278485086054    0.877998429288320  0.0000
  O1     O1        0.725606314140059    0.210534852595520    0.006476597356086  0.0000
  O1     O1        0.765752067441495    0.747676909104123    0.006070971644927  0.0000
  O1     O1        0.226437189852420    0.204789435351561    0.931766577679690  0.0000
  O1     O1        0.262918085542450    0.752335366021369    0.943641898295061  0.0000
