data_c00001.vasp
_audit_creation_method             Generated by GULP
_audit_author_name                 Salvador R. G. Balestra
_symmetry_space_group_name_H-M     'P 1             '
_symmetry_Int_Tables_number        1

loop_
_symmetry_equiv_pos_site_id
_symmetry_equiv_pos_as_xyz
_cell_length_a                       17.6510
_cell_length_b                        7.8962
_cell_length_c                       10.2985
_cell_angle_alpha                   90.1721
_cell_angle_beta                    89.9752
_cell_angle_gamma                   88.2132

loop_
_atom_site_label
_atom_site_type_symbol
_atom_site_fract_x
_atom_site_fract_y
_atom_site_fract_z
_atom_site_charge
  Ge     Ge        0.052090000000021    0.000000000000000    0.372269999999958  0.0000
  Ge     Ge        0.452329998191254    0.939996325991403    0.377473546884357  0.0000
  Ge     Ge        0.951420557069120    0.932973904559906    0.624648957591210  0.0000
  Ge     Ge        0.558299610815769    0.989454678354560    0.627575498557213  0.0000
  Ge     Ge        0.555338084910831    0.999155270250148    0.123328520841004  0.0000
  Ge     Ge        0.952068120532801    0.943677450504193    0.113257381258541  0.0000
  Ge     Ge        0.450695214644915    0.935885183992383    0.873271093038489  0.0000
  Ge     Ge        0.060801425468806    0.996073811235738    0.866127918930975  0.0000
  Ge     Ge        0.149747463025848    0.310791106824818    0.302851703534609  0.0000
  Ge     Ge        0.355466092840441    0.626458410711075    0.308429137884481  0.0000
  Ge     Ge        0.829928921914019    0.223098735743128    0.743940960913137  0.0000
  Ge     Ge        0.678334505759682    0.700853428188028    0.739129628340785  0.0000
  Ge     Ge        0.861113305733334    0.620543485091192    0.738737641827535  0.0000
  Ge     Ge        0.649357448779005    0.302957363335443    0.745588975139386  0.0000
  Ge     Ge        0.175203529327790    0.711120034713881    0.301225950904396  0.0000
  Ge     Ge        0.330235340135386    0.227018906260670    0.303343392658475  0.0000
  Ge     Ge        0.655410382095167    0.309282109005171    0.063285270170408  0.0000
  Ge     Ge        0.858373488421946    0.624844285944816    0.051139493452308  0.0000
  Ge     Ge        0.331009894628821    0.224382853825135    0.988221671389272  0.0000
  Ge     Ge        0.179152791428669    0.709252899208093    0.986196015725938  0.0000
  Ge     Ge        0.360425988970501    0.623133604833432    0.993128217576933  0.0000
  Ge     Ge        0.149581057909695    0.309921514406936    0.987683995310619  0.0000
  Ge     Ge        0.676552225433415    0.705910778447367    0.052500103104335  0.0000
  Si     Si        0.832597229937810    0.234689839621153    0.053472802763936  0.0000
  O1     O1        0.087037351653014    0.198760136369217    0.393463947407118  0.0000
  O1     O1        0.418223170640099    0.740481316130659    0.398113140052325  0.0000
  O1     O1        0.875111458166880    0.063476501408317    0.661370376058874  0.0000
  O1     O1        0.634652617265453    0.853059847208048    0.645446449070324  0.0000
  O1     O1        0.925748975617773    0.727621749674816    0.648427962341234  0.0000
  O1     O1        0.582068125143892    0.193232497889607    0.664144552545152  0.0000
  O1     O1        0.124414821677863    0.851379336694930    0.395761373104867  0.0000
  O1     O1        0.379181444085537    0.086637766442008    0.400126085951120  0.0000
  O1     O1        0.974416939356924    0.960548358778752    0.463371292416733  0.0000
  O1     O1        0.530361732987075    0.980318476116395    0.467205244618106  0.0000
  O1     O1        0.026351478402108    0.986496797696083    0.210256826431203  0.0000
  O1     O1        0.479017906312603    0.957974913591767    0.215982032832659  0.0000
  O1     O1        0.031996068099180    0.985166836495615    0.706914879115936  0.0000
  O1     O1        0.479956782090864    0.932687076548130    0.714191824073837  0.0000
  O1     O1        0.593949795768413    0.194053142951861    0.151998715354255  0.0000
  O1     O1        0.916708963939971    0.746067938813912    0.143120793815453  0.0000
  O1     O1        0.373761219276598    0.072173516845084    0.892926480115275  0.0000
  O1     O1        0.137347777028384    0.860767621301859    0.889996341627178  0.0000
  O1     O1        0.427392352038739    0.731918676304084    0.911350150455351  0.0000
  O1     O1        0.084900272780293    0.200974955549026    0.899590389714524  0.0000
  O1     O1        0.627969999677865    0.851140207638464    0.144912530541923  0.0000
  O3     O3        0.879702921486432    0.096620776617283    0.135172550544341  0.0000
  O1     O1        0.526100398125614    0.000431268929797    0.963454811340823  0.0000
  O1     O1        0.983478257148454    0.939707409558571    0.955126071289260  0.0000
  O1     O1        0.161802926784047    0.509899984753888    0.361747751112786  0.0000
  O1     O1        0.342825606694922    0.427720394958395    0.366811429687754  0.0000
  O1     O1        0.850168590333059    0.418500652063514    0.680786430280820  0.0000
  O1     O1        0.659935482189047    0.500995560060538    0.681280888109991  0.0000
  O1     O1        0.234672044840613    0.195445526405482    0.300804463859320  0.0000
  O1     O1        0.270850697044706    0.742690164944784    0.304251491018487  0.0000
  O1     O1        0.734780364610595    0.191433449052924    0.736778317458262  0.0000
  O1     O1        0.774287350593318    0.726438205233135    0.737591567489240  0.0000
  O1     O1        0.118576653295380    0.330019714075473    0.145149988525429  0.0000
  O1     O1        0.388225693535092    0.602599922944496    0.152033523485955  0.0000
  O3     O3        0.860221844233120    0.226514993541350    0.904209618738202  0.0000
  O1     O1        0.643613550416931    0.718781544948896    0.894955195062798  0.0000
  O1     O1        0.893263640858476    0.611546618550219    0.895894100143563  0.0000
  O1     O1        0.624430542466566    0.326612990571981    0.905417757607242  0.0000
  O1     O1        0.144754177670851    0.725265878442601    0.142345285923622  0.0000
  O1     O1        0.363232517870711    0.211497848476354    0.145830301836076  0.0000
  O1     O1        0.662206048164901    0.509812538771855    0.121203658176628  0.0000
  O3     O3        0.847267225213259    0.422522852584342    0.110486563851649  0.0000
  O1     O1        0.349602424529940    0.423954177608784    0.930167448715000  0.0000
  O1     O1        0.161325166487682    0.509535062051357    0.927080538222999  0.0000
  O3     O3        0.743388988260855    0.202680931991366    0.059348939961704  0.0000
  O1     O1        0.772140209704830    0.732426574111563    0.046022936111131  0.0000
  O1     O1        0.234969532654019    0.198546399341897    0.987262184581080  0.0000
  O1     O1        0.275145371019224    0.735082064314023    0.988709193107157  0.0000
