data_c00001.vasp
_audit_creation_method             Generated by GULP
_audit_author_name                 Salvador R. G. Balestra
_symmetry_space_group_name_H-M     'P 1             '
_symmetry_Int_Tables_number        1

loop_
_symmetry_equiv_pos_site_id
_symmetry_equiv_pos_as_xyz
_cell_length_a                        9.2041
_cell_length_b                        7.8969
_cell_length_c                       10.3500
_cell_angle_alpha                   90.9434
_cell_angle_beta                   106.2093
_cell_angle_gamma                   88.1356

loop_
_atom_site_label
_atom_site_type_symbol
_atom_site_fract_x
_atom_site_fract_y
_atom_site_fract_z
_atom_site_charge
  Ge     Ge        0.313819999999964    0.296860000000038    0.309830000000034  0.0000
  Ge     Ge        0.673619331848047    0.221471096708542    0.714045516315363  0.0000
  Ge     Ge        0.731855446191420    0.618903539942095    0.723995033361139  0.0000
  Ge     Ge        0.364975211719273    0.697383882626311    0.324196990183375  0.0000
  Ge     Ge        0.310903441820835    0.303942025011811    0.622502781672130  0.0000
  Ge     Ge        0.673910593175417    0.211999776109138    0.401174454936295  0.0000
  Ge     Ge        0.724094055683447    0.610439251918628    0.407522379425135  0.0000
  Ge     Ge        0.370160492162166    0.704056929434151    0.639655500260488  0.0000
  Ge     Ge        0.920854734166010    0.921285319099458    0.395110617424609  0.0000
  Ge     Ge        0.130791283642341    0.992444449712310    0.696722512132799  0.0000
  Ge     Ge        0.121591992927287    0.982469184956703    0.189486363268683  0.0000
  Ge     Ge        0.913847187094720    0.935246789591512    0.885691961246263  0.0000
  O1     O1        0.249927620528609    0.319514881767010    0.450360837014390  0.0000
  O1     O1        0.739387893688621    0.202411577322370    0.574282408840929  0.0000
  O1     O1        0.785828495140768    0.589200562635518    0.579658923582305  0.0000
  O1     O1        0.303592466603119    0.715593669493857    0.466964242273479  0.0000
  O1     O1        0.338139162892717    0.494353173647161    0.257419249499167  0.0000
  O1     O1        0.708959615239148    0.421892814915417    0.782208336773872  0.0000
  O1     O1        0.482884129276351    0.181069307207474    0.355177942806454  0.0000
  O1     O1        0.481943390463584    0.193738381560378    0.666975566691945  0.0000
  O1     O1        0.561851726309094    0.731348643401941    0.686881430755380  0.0000
  O1     O1        0.556076965955248    0.727887844948419    0.369591183020556  0.0000
  O1     O1        0.189039383221987    0.182362360567729    0.188179930763828  0.0000
  O1     O1        0.761698938922456    0.071276056002671    0.828592795817383  0.0000
  O1     O1        0.865855793780097    0.730684783579571    0.838552937929037  0.0000
  O1     O1        0.267105981859606    0.834775859810294    0.202958339437810  0.0000
  O1     O1        0.334025402026942    0.505199958961802    0.688495357187140  0.0000
  O1     O1        0.699463817148426    0.410192032832708    0.342733774401423  0.0000
  O1     O1        0.179688691420355    0.196339070639968    0.674747155441317  0.0000
  O1     O1        0.773968722101075    0.066371291748244    0.335220318070447  0.0000
  O1     O1        0.851462226402304    0.721501274225921    0.352276483549693  0.0000
  O1     O1        0.284560125275739    0.856775565491585    0.713983196999672  0.0000
  O1     O1        0.979845160006561    0.929026068141126    0.568654887173669  0.0000
  O1     O1        0.070586357291348    0.963257600447533    0.337552505331012  0.0000
  O1     O1        0.070732496060833    0.992476593261337    0.839850861230909  0.0000
  O1     O1        0.966992081208763    0.944433071929192    0.059361539567621  0.0000
