data_c00004.vasp
_audit_creation_method             Generated by GULP
_audit_author_name                 Salvador R. G. Balestra
_symmetry_space_group_name_H-M     'P 1             '
_symmetry_Int_Tables_number        1

loop_
_symmetry_equiv_pos_site_id
_symmetry_equiv_pos_as_xyz
_cell_length_a                       17.6561
_cell_length_b                        7.8861
_cell_length_c                       10.1906
_cell_angle_alpha                   89.9137
_cell_angle_beta                    90.3763
_cell_angle_gamma                   91.6383

loop_
_atom_site_label
_atom_site_type_symbol
_atom_site_fract_x
_atom_site_fract_y
_atom_site_fract_z
_atom_site_charge
  Ge     Ge        0.052090000000021    0.000000000000000    0.372269999999958  0.0000
  Ge     Ge        0.448063366329701    0.057611245946709    0.384689765895868  0.0000
  Ge     Ge        0.943432159789398    0.056644381052462    0.616765478270304  0.0000
  Ge     Ge        0.550338705127993    0.996829212389243    0.128097855192343  0.0000
  Ge     Ge        0.951960543376936    0.061744326067293    0.114728328209083  0.0000
  Ge     Ge        0.447862921008540    0.056670648044346    0.869333228652238  0.0000
  Ge     Ge        0.055211341389334    0.000344518315810    0.861518994042444  0.0000
  Ge     Ge        0.173890107428683    0.286370770197530    0.299562592098358  0.0000
  Ge     Ge        0.327514252765185    0.772084007484130    0.301574114311814  0.0000
  Ge     Ge        0.850372618137318    0.369047346170708    0.733731587857567  0.0000
  Ge     Ge        0.641513734981468    0.691680995538099    0.741214453273070  0.0000
  Ge     Ge        0.823895119946739    0.767547746695117    0.732350778762801  0.0000
  Ge     Ge        0.668059444908587    0.292349589685723    0.736974770704494  0.0000
  Ge     Ge        0.147531918485331    0.686354858966621    0.301823995355111  0.0000
  Ge     Ge        0.353941049619877    0.370971223492821    0.305594771315375  0.0000
  Ge     Ge        0.672327786052641    0.287781408407626    0.055627016571200  0.0000
  Ge     Ge        0.827750060177748    0.771730999563263    0.049887019047537  0.0000
  Ge     Ge        0.356624844202161    0.369884444876892    0.987371739217150  0.0000
  Ge     Ge        0.146136326648859    0.686968410030611    0.983552564008203  0.0000
  Ge     Ge        0.327498711640179    0.771101523245890    0.983366534885885  0.0000
  Ge     Ge        0.175220279050647    0.286861923787911    0.981061113879165  0.0000
  Ge     Ge        0.648114005248635    0.687427738923323    0.059584566970365  0.0000
  Ge     Ge        0.851814342497510    0.371777931294790    0.054097795206366  0.0000
  Si     Si        0.553025146712095    0.002993721895828    0.626883311569070  0.0000
  O1     O1        0.124947543058181    0.146503785178018    0.397647168650969  0.0000
  O1     O1        0.374893150803137    0.911513348891463    0.403318967315529  0.0000
  O1     O1        0.916275494413912    0.259433439333575    0.648297672312066  0.0000
  O3     O3        0.575582288823862    0.811572951520488    0.659203694982375  0.0000
  O1     O1        0.867704497624068    0.919858080661286    0.638285966372603  0.0000
  O3     O3        0.623460008176578    0.132288497316694    0.648111838287430  0.0000
  O1     O1        0.085173002845338    0.799222501828529    0.393729204525119  0.0000
  O1     O1        0.415438770532403    0.258629057716684    0.401757949670430  0.0000
  O1     O1        0.971786021225421    0.042485511623825    0.455323271742165  0.0000
  O3     O3        0.527528414560460    0.013937385752556    0.475130133026477  0.0000
  O1     O1        0.028918900707477    0.018445852708234    0.206992270967862  0.0000
  O1     O1        0.474760357444947    0.038177957701590    0.222122617168220  0.0000
  O1     O1        0.023979068988910    0.004075427264649    0.701391472653610  0.0000
  O3     O3        0.479411029008492    0.055527482679464    0.708319964222888  0.0000
  O1     O1        0.622559538191759    0.146401982151338    0.149856071239873  0.0000
  O1     O1        0.879325564080328    0.914542987666409    0.140693932751136  0.0000
  O1     O1        0.422435452548726    0.261249462362557    0.901698129897063  0.0000
  O1     O1        0.080415373059373    0.795835165971027    0.896195011274891  0.0000
  O1     O1        0.370753255251788    0.920985445097330    0.886100544464435  0.0000
  O1     O1        0.131786941630208    0.136875858495001    0.883555333073976  0.0000
  O1     O1        0.586719469279702    0.798739943372230    0.152962417446847  0.0000
  O1     O1        0.916808418241301    0.260501166672574    0.141460813433725  0.0000
  O1     O1        0.521621064081911    0.996993902695479    0.965706638753612  0.0000
  O1     O1        0.979122143570369    0.059145006674168    0.952328097906034  0.0000
  O1     O1        0.160436982508826    0.487682380625976    0.361686527194810  0.0000
  O1     O1        0.340916213497362    0.570212595993172    0.363197681148261  0.0000
  O1     O1        0.840029352385273    0.568935095782842    0.670162192890779  0.0000
  O1     O1        0.648672276242267    0.491034090163116    0.676300265299580  0.0000
  O1     O1        0.269451332701139    0.254678586049703    0.300319793889160  0.0000
  O1     O1        0.231937831404590    0.803117437493620    0.298641561702671  0.0000
  O1     O1        0.763739867969429    0.262628214592806    0.730048967008806  0.0000
  O1     O1        0.728017816881861    0.796140003860024    0.734918920043627  0.0000
  O1     O1        0.142064201126290    0.273057226300020    0.139355469151083  0.0000
  O1     O1        0.360312625545532    0.787329620409829    0.142728875461429  0.0000
  O1     O1        0.879775020646141    0.392695740052194    0.893160698957569  0.0000
  O1     O1        0.614703292454559    0.665073086694208    0.900868749957078  0.0000
  O1     O1        0.858790225419489    0.782990465457336    0.889845913327094  0.0000
  O1     O1        0.638337747074447    0.278467153915671    0.896567250013249  0.0000
  O1     O1        0.115685485420515    0.666222306334749    0.142655778326923  0.0000
  O1     O1        0.386846933890719    0.388152061740090    0.147598680941012  0.0000
  O1     O1        0.661379270687835    0.488860920317287    0.119611418727394  0.0000
  O1     O1        0.840580014778919    0.570851479234077    0.113996737383219  0.0000
  O1     O1        0.345275533564986    0.570249843110111    0.926131018128934  0.0000
  O1     O1        0.157840647066053    0.487340405249997    0.921592058386737  0.0000
  O1     O1        0.767651703886450    0.254108965815298    0.053544985981827  0.0000
  O1     O1        0.732324149287491    0.804356365973595    0.051573916961001  0.0000
  O1     O1        0.271200742241403    0.259001164998130    0.983371356910780  0.0000
  O1     O1        0.231518410005506    0.798252062497076    0.982511254464189  0.0000
