data_c00011.vasp
_audit_creation_method             Generated by GULP
_audit_author_name                 Salvador R. G. Balestra
_symmetry_space_group_name_H-M     'P 1             '
_symmetry_Int_Tables_number        1

loop_
_symmetry_equiv_pos_site_id
_symmetry_equiv_pos_as_xyz
_cell_length_a                       17.2579
_cell_length_b                        7.6370
_cell_length_c                       10.1655
_cell_angle_alpha                   90.5282
_cell_angle_beta                    90.3703
_cell_angle_gamma                   90.2339

loop_
_atom_site_label
_atom_site_type_symbol
_atom_site_fract_x
_atom_site_fract_y
_atom_site_fract_z
_atom_site_charge
  Ge     Ge        0.052090000000021    0.000000000000000    0.372269999999958  0.0000
  Ge     Ge        0.657091708608136    0.684233235589546    0.721902141246590  0.0000
  Si     Si        0.451933194334102    0.001566564135072    0.385451964020188  0.0000
  Si     Si        0.950590596984288    0.994253330539028    0.633128629735956  0.0000
  Si     Si        0.548304802842320    0.985005298154821    0.645725498577920  0.0000
  Si     Si        0.557686942526179    0.994603503059112    0.140269002988902  0.0000
  Si     Si        0.944443701955098    0.001003089008661    0.112191823237409  0.0000
  Si     Si        0.443254450183839    0.997806497595673    0.899445056699947  0.0000
  Si     Si        0.057048250903729    0.997276333989403    0.876144911869908  0.0000
  Si     Si        0.163059906618085    0.300843916923937    0.294032608036082  0.0000
  Si     Si        0.345710042522839    0.698039413954943    0.289340409262959  0.0000
  Si     Si        0.843366025691357    0.294818451153683    0.733234106854046  0.0000
  Si     Si        0.838135799107330    0.697622151930853    0.727159120742480  0.0000
  Si     Si        0.664588971029916    0.273214176944770    0.729512705419877  0.0000
  Si     Si        0.166847026757976    0.706900360575748    0.295068808333773  0.0000
  Si     Si        0.341768138594676    0.295846734581646    0.287570503683911  0.0000
  Si     Si        0.664095785143668    0.288463762294125    0.036829569822989  0.0000
  Si     Si        0.834128201186953    0.702979950766185    0.037694279133150  0.0000
  Si     Si        0.337123308006066    0.296096244800842    0.979917427405788  0.0000
  Si     Si        0.161410552702746    0.703578681900380    0.989858917438653  0.0000
  Si     Si        0.340821325256632    0.693833138319896    0.982131726072490  0.0000
  Si     Si        0.158004247195179    0.300497556581729    0.988577391477711  0.0000
  Si     Si        0.656132445276817    0.689647633668298    0.035427285783316  0.0000
  Si     Si        0.842696947067092    0.307352014418767    0.040985523938195  0.0000
  O3     O3        0.107718395591363    0.188437831559994    0.384116410074971  0.0000
  O2     O2        0.402638575964422    0.822716891736285    0.372428035941539  0.0000
  O2     O2        0.900690309210624    0.169615135050074    0.654128204563798  0.0000
  O3     O3        0.591093188795161    0.801164242508374    0.631404178191126  0.0000
  O2     O2        0.898372118782786    0.822262166238752    0.654338609761559  0.0000
  O2     O2        0.615578680880399    0.132627424403989    0.645959611858127  0.0000
  O3     O3        0.114809302300702    0.824998805650865    0.387186169710629  0.0000
  O2     O2        0.396664858058967    0.168409818744004    0.368680760935586  0.0000
  O3     O3        0.979651066160301    0.994062857456151    0.485375864003577  0.0000
  O2     O2        0.487324904947356    0.014634656083339    0.530136072842739  0.0000
  O3     O3        0.008910371548984    0.986479597000324    0.220352815324296  0.0000
  O2     O2        0.522998860014855    0.003303434134543    0.285166660469367  0.0000
  O2     O2        0.026871827456830    0.992827878868068    0.726246837355910  0.0000
  O2     O2        0.501637744919985    0.998251548219394    0.780601272968376  0.0000
  O2     O2        0.616206997963597    0.157622347069741    0.126976706780545  0.0000
  O2     O2        0.883666849039306    0.840716967242541    0.122507635159337  0.0000
  O2     O2        0.386401131392865    0.164634757167933    0.890249947639976  0.0000
  O2     O2        0.111120122156131    0.828916592753469    0.898288445294244  0.0000
  O2     O2        0.392685796491244    0.819713977239910    0.893356594899714  0.0000
  O2     O2        0.104183745890084    0.177523885279464    0.898439879098460  0.0000
  O2     O2        0.601705005341997    0.810265615896402    0.125305409998503  0.0000
  O2     O2        0.897802231705525    0.183863175933090    0.127178747391453  0.0000
  O2     O2        0.489026962182525    0.010782677353705    0.035829910600197  0.0000
  O2     O2        0.982962388995989    0.989648397213482    0.968907662877134  0.0000
  O2     O2        0.145833855861079    0.504667042377417    0.318215459081490  0.0000
  O2     O2        0.365010514470417    0.496326643194848    0.321142106685550  0.0000
  O2     O2        0.862763570032746    0.496219401375956    0.699943263945678  0.0000
  O3     O3        0.636579959576693    0.465968004438139    0.696863324610818  0.0000
  O2     O2        0.252869735159615    0.260704451526694    0.327035390358621  0.0000
  O2     O2        0.257363506138242    0.740058347239313    0.327442815457847  0.0000
  O2     O2        0.754941501652642    0.252330090350720    0.691719721346789  0.0000
  O3     O3        0.751518360685289    0.726992613648244    0.675898190705426  0.0000
  O2     O2        0.146208488901902    0.250350091740347    0.140955736678154  0.0000
  O2     O2        0.358006934483976    0.734529849040840    0.135174547436488  0.0000
  O2     O2        0.854257192248618    0.261075604631149    0.887867506769584  0.0000
  O3     O3        0.644784473729922    0.741708959526157    0.885061812777726  0.0000
  O2     O2        0.839759297772407    0.739114197597150    0.882721236862040  0.0000
  O2     O2        0.654347122020228    0.234342628257688    0.884444925650948  0.0000
  O2     O2        0.150231943040784    0.756413909964353    0.142458935138658  0.0000
  O2     O2        0.352213793167348    0.256960482628333    0.133060683794180  0.0000
  O2     O2        0.633290665235509    0.486253751567226    0.056827523962570  0.0000
  O2     O2        0.865719422505376    0.508889064098004    0.069895406825800  0.0000
  O2     O2        0.362939492264771    0.494040444229082    0.947172802869267  0.0000
  O2     O2        0.134825660402898    0.502641776008794    0.965639170960333  0.0000
  O2     O2        0.753660604062262    0.275477350288570    0.080035506166681  0.0000
  O2     O2        0.745002873757820    0.719697526006197    0.080072019909426  0.0000
  O2     O2        0.246642136096471    0.269824895267250    0.946968115836144  0.0000
  O2     O2        0.250839808650366    0.726803641648415    0.950352419145322  0.0000
