data_c00010.vasp
_audit_creation_method             Generated by GULP
_audit_author_name                 Salvador R. G. Balestra
_symmetry_space_group_name_H-M     'P 1             '
_symmetry_Int_Tables_number        1

loop_
_symmetry_equiv_pos_site_id
_symmetry_equiv_pos_as_xyz
_cell_length_a                       17.2634
_cell_length_b                        7.6437
_cell_length_c                       10.1973
_cell_angle_alpha                   89.5951
_cell_angle_beta                    90.7379
_cell_angle_gamma                   90.1801

loop_
_atom_site_label
_atom_site_type_symbol
_atom_site_fract_x
_atom_site_fract_y
_atom_site_fract_z
_atom_site_charge
  Ge     Ge        0.052090000000021    0.000000000000000    0.372269999999958  0.0000
  Ge     Ge        0.838609154673100    0.309493661767582    0.700166552340370  0.0000
  Si     Si        0.452243330136231    0.007577627411182    0.357958276155134  0.0000
  Si     Si        0.950239468690680    0.012512976832304    0.630996249713776  0.0000
  Si     Si        0.546482716895772    0.011981974045247    0.623630491611980  0.0000
  Si     Si        0.555774403031262    0.003969731430935    0.111776380056360  0.0000
  Si     Si        0.938614172030205    0.005907346340108    0.127207686130213  0.0000
  Si     Si        0.439222938877107    0.008351367983842    0.873104252102258  0.0000
  Si     Si        0.050724978140568    0.005690544469727    0.889971957731678  0.0000
  Si     Si        0.165657221035081    0.297700477674175    0.270734463777984  0.0000
  Si     Si        0.341567140159244    0.710214171047334    0.262516233023595  0.0000
  Si     Si        0.657243926607216    0.715398364447388    0.705643691844972  0.0000
  Si     Si        0.837007363281281    0.719556372396805    0.707135572043964  0.0000
  Si     Si        0.656419791872347    0.311802416103412    0.699286013268384  0.0000
  Si     Si        0.163551186393644    0.703984065461093    0.269826695928546  0.0000
  Si     Si        0.343769708051508    0.307055396631810    0.263552856895135  0.0000
  Si     Si        0.658505422914585    0.307250512673166    0.007342017810616  0.0000
  Si     Si        0.837457019012486    0.705625371215437    0.013346019458680  0.0000
  Si     Si        0.337820720536743    0.311825815686511    0.956824152941095  0.0000
  Si     Si        0.155569348854895    0.702656551948016    0.965149019083660  0.0000
  Si     Si        0.334335463622746    0.708781801766441    0.955559180261813  0.0000
  Si     Si        0.158957805139722    0.302469719807476    0.966070852541494  0.0000
  Si     Si        0.658242087529353    0.705579005518336    0.011102293939177  0.0000
  Si     Si        0.837233211196800    0.304208623094699    0.012768472435970  0.0000
  O3     O3        0.110894873053510    0.181474919872167    0.358790410640893  0.0000
  O2     O2        0.398258961164584    0.836937882145051    0.342475873689340  0.0000
  O3     O3        0.901419827406656    0.188664216396550    0.608834516185690  0.0000
  O2     O2        0.603670102949470    0.845441815649883    0.620892560149308  0.0000
  O2     O2        0.887824992325037    0.854386646975709    0.623538790163151  0.0000
  O2     O2        0.596611932154327    0.190289480986247    0.619226282887180  0.0000
  O3     O3        0.107631300248131    0.815041666661353    0.357288373068268  0.0000
  O2     O2        0.401619306014263    0.183139922097482    0.344239082248283  0.0000
  O3     O3        0.017912225977565    0.993023451965442    0.529823773771162  0.0000
  O2     O2        0.488687091970988    0.004118843284519    0.501719491680371  0.0000
  O3     O3        0.970784326485622    0.004781251650360    0.273557373597253  0.0000
  O2     O2        0.522331181941959    0.006887429676120    0.256706619280111  0.0000
  O2     O2        0.987689297966416    0.014924795589198    0.776301277524825  0.0000
  O2     O2        0.495666815407485    0.006150311770896    0.752726707382880  0.0000
  O2     O2        0.606234904649738    0.178446178304854    0.092087443863514  0.0000
  O2     O2        0.888482504169777    0.830302324195737    0.104959224179267  0.0000
  O2     O2        0.388987974602777    0.185890967638332    0.868330372136717  0.0000
  O2     O2        0.100330182870580    0.827387262292274    0.878424375223503  0.0000
  O2     O2        0.382306878398809    0.841043611061123    0.865247180564641  0.0000
  O2     O2        0.106888103820923    0.174310298446803    0.877975166189692  0.0000
  O2     O2        0.608229962425966    0.831482349704687    0.100607681723525  0.0000
  O2     O2        0.887005517376060    0.179155099852208    0.107560588252364  0.0000
  O2     O2        0.486127037961716    0.997628700090673    0.008433187576104  0.0000
  O2     O2        0.011120506452898    0.009663720350423    0.030936466533742  0.0000
  O2     O2        0.146327361074461    0.500107892336556    0.295013661194832  0.0000
  O2     O2        0.363639004808997    0.509144454364913    0.294326371997506  0.0000
  O3     O3        0.862237843228367    0.525617633211472    0.674048562706663  0.0000
  O2     O2        0.634816334517925    0.515123033465535    0.674177447791784  0.0000
  O2     O2        0.255964757771149    0.263107819898397    0.304910473845020  0.0000
  O2     O2        0.253303213318877    0.746198681425184    0.304193489193502  0.0000
  O3     O3        0.743032227517725    0.276420546297544    0.654249521949891  0.0000
  O2     O2        0.746666154366856    0.748121721026084    0.669647139695456  0.0000
  O2     O2        0.149930269813386    0.250187049442557    0.118453614369948  0.0000
  O2     O2        0.350020772791582    0.749669352837508    0.108173956434182  0.0000
  O3     O3        0.849689749331732    0.252661652460378    0.863485603958867  0.0000
  O2     O2        0.645047536978449    0.756113222051785    0.858943388236717  0.0000
  O2     O2        0.849468502924058    0.756686588857560    0.861847383407391  0.0000
  O2     O2        0.649651446427127    0.265430167158893    0.853606753309399  0.0000
  O2     O2        0.146877320258046    0.752221113171236    0.117485329678918  0.0000
  O2     O2        0.353751669663845    0.270066889747259    0.109568662862571  0.0000
  O2     O2        0.631861991739168    0.505539195168143    0.035719134246371  0.0000
  O2     O2        0.863576898645544    0.505144582993696    0.036462134239237  0.0000
  O2     O2        0.360879724640548    0.511639510121054    0.923836105410135  0.0000
  O2     O2        0.130981545691745    0.501483271279841    0.941248573600045  0.0000
  O2     O2        0.747452485092521    0.281867154899935    0.050355115747174  0.0000
  O2     O2        0.747984873081335    0.728982360367641    0.050668876048543  0.0000
  O2     O2        0.247616118750352    0.281028105245698    0.923281180617428  0.0000
  O2     O2        0.243797453567705    0.732061533744202    0.921545400148759  0.0000
