data_c00046.vasp
_audit_creation_method             Generated by GULP
_audit_author_name                 Salvador R. G. Balestra
_symmetry_space_group_name_H-M     'P 1             '
_symmetry_Int_Tables_number        1

loop_
_symmetry_equiv_pos_site_id
_symmetry_equiv_pos_as_xyz
_cell_length_a                       17.0282
_cell_length_b                        7.5963
_cell_length_c                       10.2906
_cell_angle_alpha                   90.2855
_cell_angle_beta                    89.8048
_cell_angle_gamma                   89.9566

loop_
_atom_site_label
_atom_site_type_symbol
_atom_site_fract_x
_atom_site_fract_y
_atom_site_fract_z
_atom_site_charge
  Ge     Ge        0.660660000000007    0.294089999999983    0.017439999999965  0.0000
  Ge     Ge        0.178049668626176    0.243846328923808    0.957613982271192  0.0000
  Si     Si        0.058624688627317    0.958493452137739    0.355615842757461  0.0000
  Si     Si        0.459044290652087    0.967363823028590    0.356705146385881  0.0000
  Si     Si        0.956853031721186    0.953651888350145    0.612908558274606  0.0000
  Si     Si        0.557097890492149    0.967837935726481    0.617680495773065  0.0000
  Si     Si        0.566367941692698    0.976587910076088    0.110205681291338  0.0000
  Si     Si        0.958637071228836    0.974092147467065    0.099286059841838  0.0000
  Si     Si        0.454878493596196    0.970464223604072    0.871605804431487  0.0000
  Si     Si        0.068334480297816    0.958963971529520    0.858909943080277  0.0000
  Si     Si        0.175239380686490    0.243977339854664    0.266117774599017  0.0000
  Si     Si        0.343017895044170    0.679865541346928    0.271089028498646  0.0000
  Si     Si        0.842267009427635    0.247574567302624    0.705319549723452  0.0000
  Si     Si        0.672676420529498    0.679079530004553    0.704651070875646  0.0000
  Si     Si        0.853057169215185    0.650829676009621    0.695182135544914  0.0000
  Si     Si        0.661538722054954    0.272252614957432    0.709378772643429  0.0000
  Si     Si        0.162341331583265    0.651972463552972    0.267000587956764  0.0000
  Si     Si        0.355031124651026    0.276500787688080    0.267441303483851  0.0000
  Si     Si        0.860685887768169    0.660376187835511    0.997279834788391  0.0000
  Si     Si        0.361080849778816    0.288518631611537    0.962252182871586  0.0000
  Si     Si        0.160900890646613    0.647645787039558    0.965957410058866  0.0000
  Si     Si        0.343291828426806    0.684251910057199    0.968346619121494  0.0000
  Si     Si        0.679363179186082    0.699123184296649    0.007853666265031  0.0000
  Si     Si        0.845320963198244    0.262355669992059    0.009960383435078  0.0000
  O2     O2        0.122335831512315    0.115491216273264    0.353543525644509  0.0000
  O2     O2        0.393759577620470    0.813588791735848    0.357411620661937  0.0000
  O2     O2        0.894383350094119    0.112522793417771    0.622261930498791  0.0000
  O2     O2        0.619368138338765    0.807420765317339    0.618803803822870  0.0000
  O2     O2        0.909958364359354    0.768927480160323    0.606394427851370  0.0000
  O2     O2        0.603115635609231    0.153093217545497    0.623780435122417  0.0000
  O2     O2        0.103090303684035    0.770107164154190    0.352431923050140  0.0000
  O2     O2        0.416110721201035    0.156035504455547    0.345114070200406  0.0000
  O2     O2        0.009330534262541    0.974929405418331    0.486471419483830  0.0000
  O2     O2        0.507577805959048    0.961049769156279    0.487587931779871  0.0000
  O2     O2        0.997879463826116    0.976759445655544    0.238816232989597  0.0000
  O2     O2        0.520175223448443    0.933245227234333    0.240791641351267  0.0000
  O2     O2        0.013653354809773    0.958064787962371    0.735387414026367  0.0000
  O2     O2        0.495839719736449    0.945680934276879    0.734246788311364  0.0000
  O3     O3        0.595253756197301    0.176556066010713    0.110613141060908  0.0000
  O2     O2        0.919991680036133    0.782909258965332    0.076495835684172  0.0000
  O2     O2        0.424399453443145    0.171096243725115    0.884737856322599  0.0000
  O2     O2        0.106282755759735    0.766627505676140    0.875846121186738  0.0000
  O2     O2        0.382857453920174    0.833220256229637    0.880569219820373  0.0000
  O3     O3        0.136320651891917    0.101901859542285    0.848072679506854  0.0000
  O2     O2        0.643634498661489    0.853809897735164    0.096549726745984  0.0000
  O2     O2        0.893447017236630    0.126644690196477    0.097099412417303  0.0000
  O2     O2        0.513742283165544    0.925829490982655    0.986961052910501  0.0000
  O2     O2        0.021663833600944    0.018920218903288    0.988496073755499  0.0000
  O2     O2        0.145172339152265    0.444825310065911    0.285002436973609  0.0000
  O2     O2        0.373106959870222    0.481368462499722    0.296595100063367  0.0000
  O2     O2        0.871597535988434    0.444936396574828    0.673189857227815  0.0000
  O2     O2        0.643158637170822    0.478592180446625    0.687258828935208  0.0000
  O2     O2        0.266150785605754    0.231159856023691    0.310608556803468  0.0000
  O2     O2        0.251445848709794    0.694813341884264    0.309997097102592  0.0000
  O2     O2        0.751044672092296    0.229035725774127    0.666717205452565  0.0000
  O2     O2        0.763012924246561    0.692243776406376    0.658039626123247  0.0000
  O3     O3        0.169624860229974    0.181764842059570    0.117862853496341  0.0000
  O2     O2        0.352342034526837    0.732319305415974    0.120231669829171  0.0000
  O2     O2        0.849674134155010    0.206529754780864    0.858206066383763  0.0000
  O2     O2        0.667476022813629    0.738031986377079    0.854857707629770  0.0000
  O2     O2        0.869114534283140    0.703291293884663    0.844787678197109  0.0000
  O3     O3        0.647953457154291    0.225705290194646    0.858780914427350  0.0000
  O2     O2        0.149364112950135    0.703320833649047    0.116752686040107  0.0000
  O2     O2        0.364842094238400    0.237891809114517    0.114438204069337  0.0000
  O3     O3        0.639788710023371    0.513865485962296    0.039603993433309  0.0000
  O2     O2        0.882325604425598    0.457742909214667    0.025604087346844  0.0000
  O2     O2        0.383146293825812    0.493912459464307    0.941757486499779  0.0000
  O3     O3        0.136287089801275    0.449418143259493    0.942211207885704  0.0000
  O3     O3        0.757016523238787    0.259754682378503    0.059953713466047  0.0000
  O2     O2        0.771479489257230    0.694188988287160    0.041550846488125  0.0000
  O3     O3        0.275092375444815    0.251448233525762    0.910932404855131  0.0000
  O2     O2        0.252228524910581    0.675231401590244    0.929271441149452  0.0000
