data_c00045.vasp
_audit_creation_method             Generated by GULP
_audit_author_name                 Salvador R. G. Balestra
_symmetry_space_group_name_H-M     'P 1             '
_symmetry_Int_Tables_number        1

loop_
_symmetry_equiv_pos_site_id
_symmetry_equiv_pos_as_xyz
_cell_length_a                       17.0342
_cell_length_b                        7.6000
_cell_length_c                       10.2644
_cell_angle_alpha                   90.5889
_cell_angle_beta                    89.7513
_cell_angle_gamma                   89.8477

loop_
_atom_site_label
_atom_site_type_symbol
_atom_site_fract_x
_atom_site_fract_y
_atom_site_fract_z
_atom_site_charge
  Ge     Ge        0.660660000000007    0.294089999999983    0.017439999999965  0.0000
  Ge     Ge        0.347076763500508    0.680306259082103    0.967993220697112  0.0000
  Si     Si        0.063736932695430    0.959002550672411    0.360506424574371  0.0000
  Si     Si        0.463985745081954    0.966135037732599    0.367433870660760  0.0000
  Si     Si        0.967815860546921    0.956804015111894    0.624214637091065  0.0000
  Si     Si        0.568435247553239    0.972209888870028    0.621053128457516  0.0000
  Si     Si        0.564428091096350    0.977071150695094    0.113362376284522  0.0000
  Si     Si        0.956583753844061    0.973339113041059    0.109914064720459  0.0000
  Si     Si        0.458141992276067    0.963925071103373    0.869788915849432  0.0000
  Si     Si        0.071130262246450    0.955648432605207    0.874202334529734  0.0000
  Si     Si        0.179831985610865    0.245866671879575    0.277290271918637  0.0000
  Si     Si        0.348446381416525    0.679481108765344    0.277154358520076  0.0000
  Si     Si        0.851018573791235    0.250508566988061    0.719420901470601  0.0000
  Si     Si        0.682094661818309    0.682234790751441    0.705912116297801  0.0000
  Si     Si        0.862817261947609    0.654245821220408    0.712604412804035  0.0000
  Si     Si        0.671220230019774    0.276872812758131    0.707295711179886  0.0000
  Si     Si        0.168936834930570    0.648812025380219    0.278274998722823  0.0000
  Si     Si        0.360819281516038    0.271293533172329    0.273629076949375  0.0000
  Si     Si        0.860681381602943    0.659187566650610    0.015271369073463  0.0000
  Si     Si        0.363814458542851    0.276368472301245    0.972388597423306  0.0000
  Si     Si        0.164199519885886    0.639134904342664    0.971760151314117  0.0000
  Si     Si        0.181156042042048    0.243232454957194    0.973750817479966  0.0000
  Si     Si        0.679047811844230    0.698584899634769    0.010332347883175  0.0000
  Si     Si        0.844725555921107    0.262238441418996    0.025260186138629  0.0000
  O2     O2        0.128875851741061    0.112952386349746    0.362970301909562  0.0000
  O2     O2        0.401213822264563    0.807698529975240    0.365988142317987  0.0000
  O2     O2        0.905661534553292    0.114840871305670    0.641337474111934  0.0000
  O2     O2        0.630896137558242    0.811582247042267    0.617125097551819  0.0000
  O2     O2        0.922440433708947    0.770776943538403    0.628807311231176  0.0000
  O2     O2        0.615115234144459    0.156595768016111    0.617202639334897  0.0000
  O2     O2        0.107820364065750    0.770728238577442    0.357319291322771  0.0000
  O2     O2        0.419342025805342    0.153766673299535    0.358848209927086  0.0000
  O2     O2        0.009562298414358    0.973944605919957    0.486317996462579  0.0000
  O2     O2        0.510536877567524    0.959224532885478    0.500856760463550  0.0000
  O2     O2        0.008320714144778    0.983402264988820    0.237368434983662  0.0000
  O2     O2        0.527269640559446    0.940051538666135    0.253060854255476  0.0000
  O2     O2        0.035180807953052    0.968247246705778    0.731947799635735  0.0000
  O2     O2        0.516446260499508    0.958826817856444    0.749929691704036  0.0000
  O3     O3        0.590935220080335    0.177986755661524    0.102111539615062  0.0000
  O2     O2        0.915444644681272    0.782591791153782    0.103288196280456  0.0000
  O2     O2        0.417945775146909    0.155846742653926    0.879947605737873  0.0000
  O2     O2        0.101155982827829    0.757084394625306    0.896466418858251  0.0000
  O3     O3        0.391617661785205    0.818068826187301    0.859489455581823  0.0000
  O2     O2        0.142523468274055    0.094102439871256    0.883806720630925  0.0000
  O2     O2        0.642254094960756    0.857418355683421    0.094185146801361  0.0000
  O2     O2        0.891467597893622    0.126758898870809    0.115103722822045  0.0000
  O2     O2        0.503375030462174    0.917642902228121    0.002806770397857  0.0000
  O2     O2        0.007840343618659    0.010240924941186    0.982307706604106  0.0000
  O2     O2        0.150224352472022    0.444593432701807    0.305767614268802  0.0000
  O2     O2        0.378211379375829    0.478331260088687    0.293360600686572  0.0000
  O2     O2        0.881327930676295    0.447942072467838    0.691458733535888  0.0000
  O2     O2        0.653236027314866    0.482455120155939    0.682354978992224  0.0000
  O2     O2        0.271378414235184    0.229107526877241    0.314906846222302  0.0000
  O2     O2        0.257595664329055    0.692668998257839    0.322841329750376  0.0000
  O2     O2        0.761565360559779    0.233030229515241    0.670557435091976  0.0000
  O2     O2        0.773922872737637    0.697248988418881    0.668811392537209  0.0000
  O2     O2        0.170378655744246    0.194869309932313    0.125286576239085  0.0000
  O3     O3        0.354588769052520    0.742374439459445    0.129309335628977  0.0000
  O2     O2        0.851461043195179    0.208524281393227    0.872775633010578  0.0000
  O2     O2        0.670931636827511    0.737335952801910    0.856551542403572  0.0000
  O2     O2        0.874964951320865    0.705452935602882    0.864035925812681  0.0000
  O3     O3        0.653900082312083    0.231468675534745    0.856148565845779  0.0000
  O2     O2        0.161140698569785    0.687308113818228    0.125153637897438  0.0000
  O2     O2        0.375557063539834    0.219162096729173    0.122691803643301  0.0000
  O3     O3        0.638418313008108    0.514226422169797    0.039657080415537  0.0000
  O2     O2        0.881657487693818    0.456904007955968    0.044460392702304  0.0000
  O3     O3        0.388943526565681    0.474202148572295    0.951427143726994  0.0000
  O2     O2        0.142325846203605    0.434024985741551    0.948019267107283  0.0000
  O3     O3        0.755181423557682    0.258727800286767    0.069885571811447  0.0000
  O2     O2        0.769946284223655    0.690474660391367    0.050411223991275  0.0000
  O2     O2        0.272584301021902    0.251353854708048    0.936325472259556  0.0000
  O3     O3        0.250475253542930    0.676435232356482    0.920109599423027  0.0000
