data_c00033.vasp
_audit_creation_method             Generated by GULP
_audit_author_name                 Salvador R. G. Balestra
_symmetry_space_group_name_H-M     'P 1             '
_symmetry_Int_Tables_number        1

loop_
_symmetry_equiv_pos_site_id
_symmetry_equiv_pos_as_xyz
_cell_length_a                       17.1126
_cell_length_b                        7.6348
_cell_length_c                       10.2764
_cell_angle_alpha                   91.5324
_cell_angle_beta                    90.4865
_cell_angle_gamma                   90.3038

loop_
_atom_site_label
_atom_site_type_symbol
_atom_site_fract_x
_atom_site_fract_y
_atom_site_fract_z
_atom_site_charge
  Ge     Ge        0.160189999999943    0.293909999999983    0.273440000000051  0.0000
  Ge     Ge        0.350357726152883    0.326564193689003    0.272268516774878  0.0000
  Si     Si        0.044627607967860    0.006105004212686    0.352786693570638  0.0000
  Si     Si        0.454417056105228    0.022984361947145    0.356259949043776  0.0000
  Si     Si        0.947172976077409    0.986365736857431    0.609866923955634  0.0000
  Si     Si        0.548310764890379    0.990439593010372    0.617700359655318  0.0000
  Si     Si        0.555716262845074    0.007325521117991    0.104203778434497  0.0000
  Si     Si        0.943505757286286    0.007710729342720    0.094651686012479  0.0000
  Si     Si        0.439272344426508    0.994937926606608    0.865540614639691  0.0000
  Si     Si        0.056214093188952    0.985734035825421    0.855300509174985  0.0000
  Si     Si        0.334198316998105    0.735737345490977    0.257819787377921  0.0000
  Si     Si        0.835342871908992    0.283998926945364    0.703991021447436  0.0000
  Si     Si        0.661114088818942    0.700648072070247    0.702548265870602  0.0000
  Si     Si        0.841574232937707    0.686887316912472    0.703533561690346  0.0000
  Si     Si        0.655380311082942    0.297606920515394    0.701463602967675  0.0000
  Si     Si        0.153647088191140    0.705578394893021    0.261480980087653  0.0000
  Si     Si        0.654158189077705    0.313448800124658    0.005446959250940  0.0000
  Si     Si        0.843857125391640    0.694288023107472    0.007146491880128  0.0000
  Si     Si        0.345698171329816    0.307642335915336    0.965492232140914  0.0000
  Si     Si        0.150633939227079    0.676714206807126    0.956059830583739  0.0000
  Si     Si        0.331187698529734    0.702543555596230    0.951461564138875  0.0000
  Si     Si        0.160893178855578    0.277823752323311    0.967089942632749  0.0000
  Si     Si        0.662956205379705    0.711488814525896    0.006031560684670  0.0000
  Si     Si        0.834400730043805    0.296968378857079    0.008244657690587  0.0000
  O3     O3        0.101684725198375    0.170863311960468    0.371869504829044  0.0000
  O2     O2        0.382326203810256    0.890087951416299    0.329143556115099  0.0000
  O2     O2        0.889730778278322    0.151991995942510    0.623429190715867  0.0000
  O2     O2        0.607664306798128    0.827165678082924    0.618448544662070  0.0000
  O2     O2        0.897999487458628    0.806955415513638    0.620185498187311  0.0000
  O2     O2        0.597623289518606    0.171375215517082    0.618437996711443  0.0000
  O2     O2        0.097334507471566    0.832839043521442    0.342285909091931  0.0000
  O3     O3        0.417966081823918    0.214658875062352    0.363390320922154  0.0000
  O2     O2        0.984277028472127    0.988291357039578    0.468707273067683  0.0000
  O2     O2        0.496185313454210    0.974405754975189    0.489457362960542  0.0000
  O2     O2        0.995691248333550    0.030158001697990    0.221329325725374  0.0000
  O2     O2        0.518976814874472    0.003786003057200    0.245171842848537  0.0000
  O2     O2        0.017244662891954    0.996120701888109    0.714271253339888  0.0000
  O2     O2        0.490676561800558    0.984419626028921    0.738383798751748  0.0000
  O2     O2        0.598303001324064    0.194229542642542    0.089831990654239  0.0000
  O2     O2        0.898939282047918    0.820737743694722    0.094613456018930  0.0000
  O2     O2        0.392783572752973    0.178120544855111    0.868799635010937  0.0000
  O2     O2        0.093176026137896    0.793042462370856    0.870113139167923  0.0000
  O2     O2        0.377783017482239    0.834152813495565    0.861186617050696  0.0000
  O2     O2        0.123224631318269    0.134902578752259    0.867205607751345  0.0000
  O2     O2        0.617648003144766    0.850008320517827    0.095444013108982  0.0000
  O2     O2        0.881142452431584    0.164940470681096    0.097271266189983  0.0000
  O2     O2        0.491102781272693    0.975911676796968    0.993840485331473  0.0000
  O2     O2        0.993053001552256    0.025210209303068    0.964987186072047  0.0000
  O3     O3        0.141831958975116    0.511784356984139    0.308633580965500  0.0000
  O3     O3        0.358413707675513    0.548075946707219    0.308642012683612  0.0000
  O2     O2        0.859965378767716    0.483013742958871    0.673226508426751  0.0000
  O2     O2        0.636514809581253    0.499328024735796    0.671492002243965  0.0000
  O1     O1        0.257162688181894    0.257395954536633    0.300846543943436  0.0000
  O2     O2        0.242862890750214    0.768338244742459    0.286340993931075  0.0000
  O2     O2        0.744714155365993    0.253791000447401    0.664170188957318  0.0000
  O2     O2        0.751807717677841    0.727848531951766    0.666910130397733  0.0000
  O3     O3        0.135292090832441    0.243246975476078    0.112951584252961  0.0000
  O2     O2        0.348447543597500    0.743038915961562    0.103172368034636  0.0000
  O2     O2        0.845760504540883    0.247607265994810    0.856438333451694  0.0000
  O2     O2        0.649105305433674    0.750440829293661    0.854353694278700  0.0000
  O2     O2        0.857291256581783    0.732504548259573    0.855470470675410  0.0000
  O2     O2        0.641630229749437    0.263157932698506    0.853528043729868  0.0000
  O2     O2        0.134323906003629    0.717757669667970    0.107692305107837  0.0000
  O3     O3        0.375816520672840    0.286569836051475    0.111267913351510  0.0000
  O2     O2        0.632186639308923    0.515864040915908    0.034083421293430  0.0000
  O2     O2        0.865578420817633    0.494264823543594    0.037256554666026  0.0000
  O2     O2        0.358544654225186    0.504982765457049    0.916724438963183  0.0000
  O2     O2        0.134239094141171    0.471772961838265    0.924487058497972  0.0000
  O2     O2        0.743730972145530    0.281573519369481    0.045171798409907  0.0000
  O2     O2        0.754029232372347    0.729285100377087    0.042121926135502  0.0000
  O2     O2        0.254134187388109    0.261577009250267    0.963227451152421  0.0000
  O2     O2        0.239529297339419    0.724351148145050    0.921437062491704  0.0000
