data_c00025.vasp
_audit_creation_method             Generated by GULP
_audit_author_name                 Salvador R. G. Balestra
_symmetry_space_group_name_H-M     'P 1             '
_symmetry_Int_Tables_number        1

loop_
_symmetry_equiv_pos_site_id
_symmetry_equiv_pos_as_xyz
_cell_length_a                       16.9931
_cell_length_b                        7.5934
_cell_length_c                       10.3180
_cell_angle_alpha                   89.6993
_cell_angle_beta                    90.3453
_cell_angle_gamma                   90.0084

loop_
_atom_site_label
_atom_site_type_symbol
_atom_site_fract_x
_atom_site_fract_y
_atom_site_fract_z
_atom_site_charge
  Ge     Ge        0.556730000000016    0.000000000000000    0.122129999999970  0.0000
  Ge     Ge        0.333887765546741    0.290186483270368    0.969173619490580  0.0000
  Si     Si        0.051385540660393    0.012388971892631    0.363974074714746  0.0000
  Si     Si        0.452205202956478    0.998898013445712    0.377271304687612  0.0000
  Si     Si        0.954983394255648    0.013455410727728    0.625646644981636  0.0000
  Si     Si        0.554166716262428    0.996242676818176    0.631590700630740  0.0000
  Si     Si        0.945168514233285    0.007261155959170    0.113463616826351  0.0000
  Si     Si        0.445925390363922    0.009145719430431    0.878441155132825  0.0000
  Si     Si        0.058186673006989    0.015190805226799    0.878739351526920  0.0000
  Si     Si        0.156005822000604    0.321065453636339    0.276817858524495  0.0000
  Si     Si        0.349143032111910    0.695023875069980    0.278479179586411  0.0000
  Si     Si        0.851818684865035    0.319386102306271    0.713781100880745  0.0000
  Si     Si        0.657731482847657    0.689880776682479    0.710695814316316  0.0000
  Si     Si        0.838397693991891    0.723231424793846    0.714421459494011  0.0000
  Si     Si        0.669923206149305    0.284532828694903    0.712913951893779  0.0000
  Si     Si        0.167729768046361    0.724750001542501    0.278394850866797  0.0000
  Si     Si        0.335983420398240    0.286408021794894    0.277155019985520  0.0000
  Si     Si        0.672226050623662    0.282331403653460    0.013711489959484  0.0000
  Si     Si        0.833698943528556    0.722720209074076    0.017425906112594  0.0000
  Si     Si        0.169451785584392    0.729831561080918    0.976663150299619  0.0000
  Si     Si        0.352919151646411    0.693696103388747    0.978740164850749  0.0000
  Si     Si        0.150464972158858    0.333926832192732    0.972016437741828  0.0000
  Si     Si        0.652309353145247    0.682358822271131    0.012213861461679  0.0000
  Si     Si        0.854191468462032    0.325492201533233    0.014719484941354  0.0000
  O2     O2        0.094976679042735    0.200724492610052    0.355266383286233  0.0000
  O2     O2        0.408067314276779    0.810564392451695    0.365148484389077  0.0000
  O2     O2        0.910204229853305    0.200732636557182    0.629556591075749  0.0000
  O2     O2        0.599317982515806    0.809142122302500    0.623865654543788  0.0000
  O2     O2        0.890746015815010    0.857518816570475    0.631789853613022  0.0000
  O2     O2        0.618407567025245    0.153482286851938    0.624721496737621  0.0000
  O2     O2        0.116595838609924    0.857889684468816    0.363210168081695  0.0000
  O2     O2        0.389424360406713    0.157196163359812    0.363919125528934  0.0000
  O2     O2        0.002791047928139    0.000498967796928    0.494467143134502  0.0000
  O2     O2        0.491012915634702    0.011861110480681    0.518141582802169  0.0000
  O2     O2        0.990319000542738    0.986235037230602    0.247533545601841  0.0000
  O3     O3        0.522233170643838    0.015111759056705    0.276444016794623  0.0000
  O2     O2        0.017392844101205    0.993235373724054    0.741130628760583  0.0000
  O2     O2        0.507775183792739    0.011441977177324    0.764791507142189  0.0000
  O3     O3        0.634736660349734    0.143991807831171    0.108855980494683  0.0000
  O2     O2        0.874684660674101    0.865620260300762    0.109061493139651  0.0000
  O3     O3        0.377031218477385    0.150135067257097    0.860974474308138  0.0000
  O2     O2        0.131476511111835    0.879982484793113    0.886608413138295  0.0000
  O2     O2        0.408269653292815    0.814616933600322    0.890740296639788  0.0000
  O2     O2        0.087517919587515    0.216137824523065    0.894595868803492  0.0000
  O3     O3        0.590137369217108    0.788618057143412    0.094170678292922  0.0000
  O2     O2        0.911442163365992    0.205703878367288    0.102460175115233  0.0000
  O3     O3        0.486883936149531    0.066452289778908    0.012405950105641  0.0000
  O2     O2        0.000629478297282    0.960737876861749    0.993906542994289  0.0000
  O2     O2        0.138315633349504    0.525827223395217    0.305334364888804  0.0000
  O2     O2        0.365664253883541    0.487359624869841    0.296778184847828  0.0000
  O2     O2        0.867331091368833    0.524982332036529    0.684906664283221  0.0000
  O2     O2        0.641491838972691    0.484091707252558    0.684403987565541  0.0000
  O2     O2        0.244876382353357    0.273357959917886    0.320671235611809  0.0000
  O2     O2        0.259591013292084    0.740188308641978    0.317089947362799  0.0000
  O2     O2        0.762028121675197    0.268260182814374    0.678451291604318  0.0000
  O2     O2        0.747070153475546    0.739813105358727    0.673144056995641  0.0000
  O2     O2        0.146628276719003    0.283941848944481    0.124179749727464  0.0000
  O2     O2        0.365823525061070    0.747838132801936    0.129247757527717  0.0000
  O2     O2        0.869994221778754    0.279791270457562    0.864618250735149  0.0000
  O2     O2        0.641932279905215    0.733592085920727    0.860852183544436  0.0000
  O2     O2        0.846066460708310    0.769427183313173    0.866215274776484  0.0000
  O2     O2        0.658129854898883    0.231166403893588    0.863104998559527  0.0000
  O2     O2        0.158348886173872    0.777059909638690    0.127567699113405  0.0000
  O3     O3        0.342482136020861    0.226642702534930    0.129511363244755  0.0000
  O2     O2        0.635655767224353    0.476045396615185    0.035180024162622  0.0000
  O2     O2        0.871253335941852    0.530116236143571    0.044812399647474  0.0000
  O3     O3        0.376711783902062    0.495322583160820    0.954920437574846  0.0000
  O2     O2        0.129722827482539    0.539925376866436    0.949145843699377  0.0000
  O2     O2        0.764437885610209    0.283474031865103    0.046940922865842  0.0000
  O2     O2        0.741917116444219    0.726307809014061    0.053360597066437  0.0000
  O3     O3        0.236896008859408    0.296293791767429    0.921902481810673  0.0000
  O2     O2        0.261351510831058    0.721178035374336    0.942465062033743  0.0000
