data_c00004.vasp
_audit_creation_method             Generated by GULP
_audit_author_name                 Salvador R. G. Balestra
_symmetry_space_group_name_H-M     'P 1             '
_symmetry_Int_Tables_number        1

loop_
_symmetry_equiv_pos_site_id
_symmetry_equiv_pos_as_xyz
_cell_length_a                       17.0736
_cell_length_b                        7.5849
_cell_length_c                       10.3708
_cell_angle_alpha                   89.9174
_cell_angle_beta                    90.7811
_cell_angle_gamma                   90.2073

loop_
_atom_site_label
_atom_site_type_symbol
_atom_site_fract_x
_atom_site_fract_y
_atom_site_fract_z
_atom_site_charge
  Ge     Ge        0.052090000000021    0.000000000000000    0.372269999999958  0.0000
  Ge     Ge        0.561262863000135    0.980322469113393    0.123141646468169  0.0000
  Si     Si        0.456125850288271    0.986532538662936    0.371588849224746  0.0000
  Si     Si        0.950897777178247    0.999578983947165    0.634372950232288  0.0000
  Si     Si        0.549748802112760    0.983602261548447    0.634012109602582  0.0000
  Si     Si        0.944741865774012    0.998956080791098    0.119796379915784  0.0000
  Si     Si        0.444971190599238    0.993237037278619    0.882507808734638  0.0000
  Si     Si        0.056682827056197    0.994317801209858    0.887277495457026  0.0000
  Si     Si        0.159740346901320    0.304982625613588    0.275785622257659  0.0000
  Si     Si        0.352813357658821    0.680695484675214    0.271502090101187  0.0000
  Si     Si        0.848623843204616    0.308208357529536    0.710797845961057  0.0000
  Si     Si        0.653336607480692    0.675895990040698    0.715969524021320  0.0000
  Si     Si        0.833332329619070    0.711458830726246    0.712192465274973  0.0000
  Si     Si        0.667984210590375    0.269397142859545    0.714574801235154  0.0000
  Si     Si        0.172816729485685    0.714046320111022    0.273062161993708  0.0000
  Si     Si        0.339865457695316    0.274657073192222    0.271251891675132  0.0000
  Si     Si        0.674756049757945    0.263862540088905    0.013563031235019  0.0000
  Si     Si        0.833839287581238    0.711317937982974    0.014000618394489  0.0000
  Si     Si        0.334724659691038    0.277743176896241    0.970090705539162  0.0000
  Si     Si        0.168903812277495    0.709619183920998    0.974033316851546  0.0000
  Si     Si        0.350185272505044    0.676869653743511    0.971168891912556  0.0000
  Si     Si        0.153636034820643    0.307629770845570    0.977027580963550  0.0000
  Si     Si        0.653448068561418    0.663034220707970    0.015488734812762  0.0000
  Si     Si        0.855279699208884    0.315390979810211    0.011222651067604  0.0000
  O3     O3        0.100264119008085    0.199815880220721    0.362896284957168  0.0000
  O2     O2        0.414056029533263    0.797117249965904    0.352767884992179  0.0000
  O2     O2        0.907034853842922    0.188887723777598    0.627757037761240  0.0000
  O2     O2        0.592739062850596    0.793885913433799    0.633433390095496  0.0000
  O2     O2        0.884116757904017    0.847558472376460    0.629420382297587  0.0000
  O2     O2        0.615580891651525    0.137342523173810    0.628347648160556  0.0000
  O3     O3        0.121692123751354    0.836921484725337    0.360662931147084  0.0000
  O2     O2        0.392968889524602    0.142234032425330    0.353751009459397  0.0000
  O3     O3        0.010385465196921    0.980393407237915    0.520615111050039  0.0000
  O2     O2        0.491016892464602    0.997381021926509    0.514529405092073  0.0000
  O3     O3        0.976362808925658    0.980609995682402    0.263005153416744  0.0000
  O3     O3        0.527436161449138    0.006844859620068    0.275797069181452  0.0000
  O2     O2        0.000425227532492    0.978268601662001    0.765656371722776  0.0000
  O2     O2        0.498249995226810    0.009972932054212    0.759526290701360  0.0000
  O3     O3        0.639544528279173    0.122449152164072    0.107355225672626  0.0000
  O2     O2        0.874444950013843    0.859081474211243    0.101231582632860  0.0000
  O2     O2        0.376074124818224    0.139306257758012    0.877154921434937  0.0000
  O2     O2        0.123794224721561    0.844861936175609    0.880574413001701  0.0000
  O2     O2        0.407140261990225    0.797306662284679    0.886360640479496  0.0000
  O2     O2        0.095967403569616    0.188728858398575    0.889698172000060  0.0000
  O3     O3        0.593882454949895    0.767187172969650    0.102160380912078  0.0000
  O2     O2        0.914001622500146    0.198006687520670    0.096520618173314  0.0000
  O3     O3        0.492344826797831    0.039304080283942    0.010984397782096  0.0000
  O2     O2        0.011618195190438    0.954164241180191    0.018543634687042  0.0000
  O2     O2        0.148204623124276    0.512178251134897    0.297811547554302  0.0000
  O2     O2        0.366823656856623    0.474831998272248    0.301657709785777  0.0000
  O2     O2        0.862318713273211    0.514029709047441    0.679390337938965  0.0000
  O2     O2        0.638624151516156    0.469019302048058    0.689472899987012  0.0000
  O2     O2        0.249260223670715    0.249836622799714    0.309005711882150  0.0000
  O2     O2        0.264883324596525    0.736504872985109    0.306857095220183  0.0000
  O2     O2        0.759065636644564    0.254727181511836    0.676669084221576  0.0000
  O2     O2        0.741525034385185    0.728183677111095    0.675722392161464  0.0000
  O2     O2        0.140634613209935    0.256742662184600    0.126422434506522  0.0000
  O2     O2        0.368492516298741    0.719515222494789    0.120995960220486  0.0000
  O2     O2        0.868169489265963    0.272663363041968    0.860933004432286  0.0000
  O2     O2        0.639340230354306    0.718346521392658    0.866142317498621  0.0000
  O2     O2        0.843889927598904    0.755432568976752    0.863248768131331  0.0000
  O2     O2        0.659587750147771    0.212951021603528    0.863740874908852  0.0000
  O2     O2        0.158639026034483    0.764706543627535    0.123059352754832  0.0000
  O2     O2        0.350026953148445    0.231808333670404    0.120332061995297  0.0000
  O2     O2        0.637234449254426    0.456204106008297    0.036250774842739  0.0000
  O2     O2        0.872835492495958    0.520464956901264    0.041977503311421  0.0000
  O2     O2        0.368096850796847    0.473179276923810    0.940776239217732  0.0000
  O2     O2        0.134777439080731    0.512843522726586    0.951652944719531  0.0000
  O2     O2        0.766693672233767    0.270678741869399    0.046175439481597  0.0000
  O2     O2        0.743166893819430    0.709107986722064    0.052428527816059  0.0000
  O2     O2        0.242633257192477    0.269124085484399    0.938726061594379  0.0000
  O2     O2        0.260008165372560    0.718127372875927    0.937873585855860  0.0000
