data_c00035.vasp
_audit_creation_method             Generated by GULP
_audit_author_name                 Salvador R. G. Balestra
_symmetry_space_group_name_H-M     'P 1             '
_symmetry_Int_Tables_number        1

loop_
_symmetry_equiv_pos_site_id
_symmetry_equiv_pos_as_xyz
_cell_length_a                       17.1009
_cell_length_b                        7.6249
_cell_length_c                       10.2445
_cell_angle_alpha                   90.4207
_cell_angle_beta                    90.2396
_cell_angle_gamma                   90.0618

loop_
_atom_site_label
_atom_site_type_symbol
_atom_site_fract_x
_atom_site_fract_y
_atom_site_fract_z
_atom_site_charge
  Ge     Ge        0.160189999999943    0.293909999999983    0.273440000000051  0.0000
  Ge     Ge        0.836729850460260    0.690724285273383    0.009495680850079  0.0000
  Si     Si        0.054000001989801    0.992680749706574    0.353866906552921  0.0000
  Si     Si        0.457586865088165    0.979081635910839    0.351517979930390  0.0000
  Si     Si        0.951183338599738    0.976697670793397    0.606156923599530  0.0000
  Si     Si        0.552130596644324    0.968398139780756    0.616652600499561  0.0000
  Si     Si        0.559592106748024    0.969252936117724    0.101601314864270  0.0000
  Si     Si        0.947684635895731    0.980832767166466    0.100579141070506  0.0000
  Si     Si        0.443720039551142    0.976309596515296    0.866107408115152  0.0000
  Si     Si        0.056331149268882    0.974464762836212    0.857609178918986  0.0000
  Si     Si        0.349480018741885    0.677712293651102    0.256645510420053  0.0000
  Si     Si        0.847437448748734    0.281682380762007    0.698166802137834  0.0000
  Si     Si        0.658141893817174    0.661530339723496    0.698016553410467  0.0000
  Si     Si        0.837082803249959    0.688382970211971    0.699301507348562  0.0000
  Si     Si        0.667208610509617    0.259710762709197    0.696099059443870  0.0000
  Si     Si        0.168327964449116    0.703847902322563    0.262167479382622  0.0000
  Si     Si        0.343338110551862    0.273621389039977    0.262788997925337  0.0000
  Si     Si        0.668609030766332    0.258806358403089    0.000305647176530  0.0000
  Si     Si        0.334309988217423    0.267107708316013    0.956089174077140  0.0000
  Si     Si        0.165791497508528    0.686881600692904    0.957673873775113  0.0000
  Si     Si        0.346679518977622    0.664744427716458    0.953115469824689  0.0000
  Si     Si        0.153886703456629    0.285706399396851    0.962804480052553  0.0000
  Si     Si        0.654384881933993    0.654266846659662    0.005300267048515  0.0000
  Si     Si        0.850379258211790    0.287524585666832    0.000684014963960  0.0000
  O3     O3        0.097762974383567    0.176110715021246    0.370562454044779  0.0000
  O2     O2        0.406453982303066    0.802698979155030    0.338776940170295  0.0000
  O2     O2        0.905084549288326    0.161875937266861    0.612203277438434  0.0000
  O2     O2        0.597762632436536    0.783278574629776    0.620040644900318  0.0000
  O2     O2        0.890470388995785    0.815842957200227    0.613373520835495  0.0000
  O2     O2        0.615221276270005    0.125705492864367    0.611680941119655  0.0000
  O2     O2        0.121277882591480    0.844297372248848    0.347868787764083  0.0000
  O2     O2        0.402685951152417    0.149316402392609    0.339858014056734  0.0000
  O2     O2        0.993725604066858    0.958337070851185    0.468672133263989  0.0000
  O2     O2        0.497461177495078    0.977884877334120    0.491662976302193  0.0000
  O2     O2        0.006720502171906    0.989735456123407    0.219146988722193  0.0000
  O2     O2        0.526029132961252    0.985102185408792    0.245758519555615  0.0000
  O2     O2        0.017622564842008    0.966970895360833    0.716136751546051  0.0000
  O2     O2        0.497154020627138    0.991632980755604    0.740977766390529  0.0000
  O2     O2        0.628242440070411    0.112513697973254    0.088106432936210  0.0000
  O3     O3        0.884635554210812    0.828465138368954    0.115552695102738  0.0000
  O2     O2        0.378715617378822    0.128903808762227    0.864613462532468  0.0000
  O2     O2        0.120190607350726    0.819581332825502    0.864520362951538  0.0000
  O2     O2        0.401858716267573    0.786078119428707    0.865163165863191  0.0000
  O2     O2        0.096260068649155    0.164739362845386    0.876563872827080  0.0000
  O2     O2        0.592183566250368    0.773079322018363    0.081628410570343  0.0000
  O2     O2        0.903519739944365    0.166366476071830    0.091154622182926  0.0000
  O2     O2        0.493343718622730    0.009914496310940    0.996320353231287  0.0000
  O2     O2        0.991836083587246    0.935557556614019    0.966129387131908  0.0000
  O3     O3        0.138851062894702    0.511935237065849    0.296356072129082  0.0000
  O2     O2        0.369225200729140    0.475575423767419    0.286090486324721  0.0000
  O2     O2        0.865776229110322    0.487545242568829    0.679243508756963  0.0000
  O2     O2        0.638527989479804    0.457849629102776    0.668806343675120  0.0000
  O3     O3        0.256092216695398    0.249586326222944    0.314088254913769  0.0000
  O2     O2        0.260335783225094    0.719041492982524    0.296162475008329  0.0000
  O2     O2        0.758045911762763    0.241054305059710    0.656574674772967  0.0000
  O2     O2        0.746640161571433    0.703547694228006    0.653586166025480  0.0000
  O3     O3        0.143474662156810    0.235845648315873    0.112467144163368  0.0000
  O2     O2        0.361732096392013    0.716487478934120    0.103798649195569  0.0000
  O2     O2        0.861132556552171    0.231993436461279    0.849149234105387  0.0000
  O2     O2        0.650987767113469    0.700618230294322    0.851938005771307  0.0000
  O3     O3        0.843827959202545    0.750073051078557    0.848135829691692  0.0000
  O2     O2        0.657919796822996    0.210779687719516    0.848014364651833  0.0000
  O2     O2        0.155711190236171    0.743085748264759    0.108578496209212  0.0000
  O2     O2        0.344677889230038    0.225150434915543    0.109007738777986  0.0000
  O2     O2        0.631659255159052    0.450488994404468    0.027893055176528  0.0000
  O3     O3        0.876342283123300    0.484219540431083    0.025255421164828  0.0000
  O2     O2        0.367522525846695    0.461540308208356    0.926757222396152  0.0000
  O2     O2        0.132479814163510    0.489785022621732    0.938930335118999  0.0000
  O2     O2        0.759655442003408    0.263352607986614    0.038296145820190  0.0000
  O3     O3        0.740445136870436    0.691362937917033    0.057503424419265  0.0000
  O2     O2        0.243176096719528    0.254210083683388    0.919290770094271  0.0000
  O2     O2        0.256312165436174    0.696474611539820    0.917332679556057  0.0000
