data_c00067.vasp
_audit_creation_method             Generated by GULP
_audit_author_name                 Salvador R. G. Balestra
_symmetry_space_group_name_H-M     'P 1             '
_symmetry_Int_Tables_number        1

loop_
_symmetry_equiv_pos_site_id
_symmetry_equiv_pos_as_xyz
_cell_length_a                        9.2635
_cell_length_b                        7.6404
_cell_length_c                       10.2325
_cell_angle_alpha                   86.0921
_cell_angle_beta                   109.8584
_cell_angle_gamma                   89.9696

loop_
_atom_site_label
_atom_site_type_symbol
_atom_site_fract_x
_atom_site_fract_y
_atom_site_fract_z
_atom_site_charge
  Ge     Ge        0.313819999999964    0.296860000000038    0.309830000000034  0.0000
  Ge     Ge        0.352115453219062    0.262123362563558    0.637478539176611  0.0000
  Ge     Ge        0.644482899632781    0.746993034923279    0.393959567055984  0.0000
  Ge     Ge        0.880010937183566    0.041955991376661    0.345362812090121  0.0000
  Si     Si        0.714171354757013    0.291339099007483    0.707777263954452  0.0000
  Si     Si        0.691229960010217    0.697229857859434    0.718624820704727  0.0000
  Si     Si        0.300659977826915    0.696415275792115    0.322634563537051  0.0000
  Si     Si        0.671585830872929    0.331857714766886    0.391980874552569  0.0000
  Si     Si        0.347563282075674    0.655948794827892    0.645191572910054  0.0000
  Si     Si        0.132442062846087    0.967752888803552    0.656191718751356  0.0000
  Si     Si        0.086555924551460    0.009597070924672    0.164792635956908  0.0000
  Si     Si        0.927928140310713    0.970517067949716    0.849036214106928  0.0000
  O1     O1        0.276744309827290    0.246342390704073    0.461025661048466  0.0000
  O2     O2        0.737982773695433    0.290635727733053    0.559598912400320  0.0000
  O3     O3        0.703890886600574    0.765200241853840    0.571393835983541  0.0000
  O2     O2        0.335035312952215    0.629645587575121    0.485251079686339  0.0000
  O3     O3        0.272153158103558    0.516275963927403    0.248455968016693  0.0000
  O2     O2        0.735053156381257    0.490299584430895    0.755887567561502  0.0000
  O3     O3        0.504001029340564    0.250036238427710    0.336608163173518  0.0000
  O3     O3        0.548098066229310    0.221685323738145    0.694743030395403  0.0000
  O2     O2        0.518395982953874    0.728868383875407    0.720066219749472  0.0000
  O3     O3        0.450389015251136    0.797144471874448    0.316551255906134  0.0000
  O3     O3        0.203747197113423    0.166546255524448    0.184824974783786  0.0000
  O2     O2        0.843436323590678    0.161577999138095    0.815631533860507  0.0000
  O2     O2        0.806044776699017    0.814913031460834    0.832002522941478  0.0000
  O2     O2        0.159442149230826    0.834751484407414    0.266156314861929  0.0000
  O3     O3        0.325868113835286    0.461514947108846    0.699801838033969  0.0000
  O3     O3        0.664110377893501    0.536316194376095    0.352320006857273  0.0000
  O3     O3        0.258386677364849    0.112484483600388    0.712202571105740  0.0000
  O3     O3        0.785153008889984    0.240252013039055    0.330744503981220  0.0000
  O1     O1        0.753069256520726    0.875951104745039    0.325976281785540  0.0000
  O2     O2        0.220084947775236    0.783261143077954    0.661234339178649  0.0000
  O3     O3        0.031888055847349    0.018689897504257    0.497985439065628  0.0000
  O3     O3        0.941160453538484    0.062313063623057    0.204019719721015  0.0000
  O2     O2        0.026947228419511    0.940829054497480    0.750744492371270  0.0000
  O2     O2        0.040618341622754    0.957023025797068    0.006905741524330  0.0000
