data_c00009.vasp
_audit_creation_method             Generated by GULP
_audit_author_name                 Salvador R. G. Balestra
_symmetry_space_group_name_H-M     'P 1             '
_symmetry_Int_Tables_number        1

loop_
_symmetry_equiv_pos_site_id
_symmetry_equiv_pos_as_xyz
_cell_length_a                        8.9924
_cell_length_b                        7.6848
_cell_length_c                       10.1920
_cell_angle_alpha                   88.4344
_cell_angle_beta                   105.8204
_cell_angle_gamma                   92.0120

loop_
_atom_site_label
_atom_site_type_symbol
_atom_site_fract_x
_atom_site_fract_y
_atom_site_fract_z
_atom_site_charge
  Ge     Ge        0.313819999999964    0.296860000000038    0.309830000000034  0.0000
  Ge     Ge        0.684931521056983    0.337502386875559    0.715909744997647  0.0000
  Ge     Ge        0.638571425911196    0.746630368803218    0.702578004049880  0.0000
  Ge     Ge        0.889770906481978    0.028526488199311    0.870844609436542  0.0000
  Si     Si        0.291367098953624    0.696760827706848    0.307366099175975  0.0000
  Si     Si        0.323822372021586    0.278914339386081    0.627664107870086  0.0000
  Si     Si        0.671479048326127    0.342240160182913    0.399503125145944  0.0000
  Si     Si        0.643715577786248    0.742938180532169    0.391925286449894  0.0000
  Si     Si        0.284374049357379    0.674604862300460    0.615720165673279  0.0000
  Si     Si        0.872846635373132    0.040496820875852    0.382963667871222  0.0000
  Si     Si        0.096199198886536    0.979351675201710    0.671163329410027  0.0000
  Si     Si        0.081334554220656    0.002883827084530    0.183881892813535  0.0000
  O3     O3        0.316500259607379    0.232476886414470    0.473610204125852  0.0000
  O3     O3        0.678238619812819    0.281136207246047    0.551702261909924  0.0000
  O3     O3        0.646452423286976    0.806260672493487    0.539992341183692  0.0000
  O2     O2        0.292455234800629    0.724446790176960    0.463500796589532  0.0000
  O3     O3        0.240013646576948    0.501532409225049    0.266776839639339  0.0000
  O1     O1        0.726974208775987    0.552793130996829    0.745740765212731  0.0000
  O3     O3        0.502906411778898    0.305988990861555    0.300644481907832  0.0000
  O3     O3        0.496681528105987    0.286925078926076    0.723645978100131  0.0000
  O3     O3        0.450646950503808    0.719765358784771    0.714089845944388  0.0000
  O2     O2        0.466511804277090    0.738894985619234    0.297264177184261  0.0000
  O3     O3        0.205841917296296    0.158751507902039    0.188895877142923  0.0000
  O1     O1        0.830750482674063    0.236696495286850    0.831823267997847  0.0000
  O1     O1        0.723817059775584    0.906113747282283    0.810824487443443  0.0000
  O2     O2        0.172967523818493    0.823477534739144    0.207337131117482  0.0000
  O2     O2        0.245575111524535    0.467883585382454    0.626810572695797  0.0000
  O2     O2        0.713376071258708    0.550063912856195    0.397463485300241  0.0000
  O2     O2        0.228308720878275    0.129742637557190    0.686495829523572  0.0000
  O2     O2        0.794245168465395    0.228747383355619    0.350107984263698  0.0000
  O2     O2        0.747145062063927    0.883144535969315    0.331037721983742  0.0000
  O2     O2        0.155330988118690    0.787627080709835    0.653175764198880  0.0000
  O2     O2        0.948739534193559    0.021368787505917    0.545014693787601  0.0000
  O2     O2        0.006017358512717    0.035581339569689    0.307398441868965  0.0000
  O3     O3        0.038600147444869    0.970829155687946    0.805413906132002  0.0000
  O3     O3        0.950591953926118    0.997351146716021    0.044879581555570  0.0000
