data_c00036.vasp
_audit_creation_method             Generated by GULP
_audit_author_name                 Salvador R. G. Balestra
_symmetry_space_group_name_H-M     'P 1             '
_symmetry_Int_Tables_number        1

loop_
_symmetry_equiv_pos_site_id
_symmetry_equiv_pos_as_xyz
_cell_length_a                        9.1249
_cell_length_b                        7.6831
_cell_length_c                       10.1834
_cell_angle_alpha                   86.8743
_cell_angle_beta                   110.0326
_cell_angle_gamma                   88.3983

loop_
_atom_site_label
_atom_site_type_symbol
_atom_site_fract_x
_atom_site_fract_y
_atom_site_fract_z
_atom_site_charge
  Ge     Ge        0.313819999999964    0.296860000000038    0.309830000000034  0.0000
  Ge     Ge        0.744385197029453    0.602051135731752    0.740111294329098  0.0000
  Ge     Ge        0.687665941180889    0.233012589233243    0.398958365560308  0.0000
  Ge     Ge        0.122893602285239    0.979040622472942    0.174113942310151  0.0000
  Si     Si        0.718511251551639    0.192697308290636    0.717759598402991  0.0000
  Si     Si        0.371429873200563    0.681603978219568    0.347218480209634  0.0000
  Si     Si        0.359321512256309    0.239327582248842    0.639350675417604  0.0000
  Si     Si        0.723417011829348    0.633365994180368    0.424265962761090  0.0000
  Si     Si        0.390762344274881    0.625797082716872    0.665807532035667  0.0000
  Si     Si        0.905677377605269    0.936106171395309    0.350511990557827  0.0000
  Si     Si        0.155885236091389    0.935168739916363    0.653768623310614  0.0000
  Si     Si        0.963542674602440    0.895545551215235    0.859901046762774  0.0000
  O3     O3        0.316778208940887    0.227069853183563    0.475113099157393  0.0000
  O3     O3        0.712568371782657    0.145336261420082    0.565235900527114  0.0000
  O3     O3        0.748384789823450    0.684307871466930    0.580439298420696  0.0000
  O2     O2        0.406559371139803    0.650843199755827    0.513434477020002  0.0000
  O3     O3        0.272287426566015    0.520720813066022    0.276575295941380  0.0000
  O3     O3        0.786654726708197    0.380055466407645    0.756594764932788  0.0000
  O1     O1        0.494885500893442    0.250689133960937    0.299649532171550  0.0000
  O2     O2        0.542411642529724    0.189805684008812    0.720252119150940  0.0000
  O3     O3        0.567823306859776    0.637209466784210    0.767219200815649  0.0000
  O2     O2        0.540326337803088    0.666128525809824    0.328637054496477  0.0000
  O1     O1        0.169711648668806    0.192554383122571    0.190704178411204  0.0000
  O2     O2        0.825058699956140    0.045282707436610    0.831391102356669  0.0000
  O3     O3        0.888880761042348    0.709591190694848    0.859684543373624  0.0000
  O3     O3        0.290315523934544    0.866786515376724    0.287601209757700  0.0000
  O2     O2        0.324198395309820    0.434268362765803    0.678709988599654  0.0000
  O3     O3        0.771870042585479    0.433972515927130    0.418312052696448  0.0000
  O2     O2        0.255904758026029    0.106359027858088    0.694180070590813  0.0000
  O3     O3        0.786500125013949    0.100652228140924    0.323991510985296  0.0000
  O2     O2        0.825188483966660    0.755555025248280    0.360469103001661  0.0000
  O2     O2        0.272676914725689    0.764482264419695    0.692721408170059  0.0000
  O2     O2        0.057659015422463    0.952864693643776    0.489006238166467  0.0000
  O3     O3        0.962777075903419    0.932163596371951    0.219301651470710  0.0000
  O2     O2        0.042084475084819    0.919764779918251    0.741361001858954  0.0000
  O3     O3        0.093572734816539    0.916689988924843    0.008192265462901  0.0000
