data_c00041.vasp
_audit_creation_method             Generated by GULP
_audit_author_name                 Salvador R. G. Balestra
_symmetry_space_group_name_H-M     'P 1             '
_symmetry_Int_Tables_number        1

loop_
_symmetry_equiv_pos_site_id
_symmetry_equiv_pos_as_xyz
_cell_length_a                        9.1668
_cell_length_b                        7.6402
_cell_length_c                       10.0155
_cell_angle_alpha                   86.4378
_cell_angle_beta                   108.3851
_cell_angle_gamma                   87.8875

loop_
_atom_site_label
_atom_site_type_symbol
_atom_site_fract_x
_atom_site_fract_y
_atom_site_fract_z
_atom_site_charge
  Ge     Ge        0.313819999999964    0.296860000000038    0.309830000000034  0.0000
  Ge     Ge        0.728780078293522    0.584058174722328    0.746783569795741  0.0000
  Ge     Ge        0.096805452848521    0.000785678285920    0.194115127068036  0.0000
  Ge     Ge        0.925468220528634    0.896201065712325    0.878746168937437  0.0000
  Si     Si        0.676043566862632    0.197895813509077    0.709677678456763  0.0000
  Si     Si        0.350512017163339    0.701703536641729    0.337716644125742  0.0000
  Si     Si        0.331029346552986    0.245726985886231    0.632197300178299  0.0000
  Si     Si        0.664103674394348    0.258958743545014    0.389507872391238  0.0000
  Si     Si        0.707141013044356    0.640620097986730    0.420286343858506  0.0000
  Si     Si        0.364857851978177    0.647126734500140    0.652997770451040  0.0000
  Si     Si        0.904662190606901    0.947113831310470    0.411460510306653  0.0000
  Si     Si        0.149025679564615    0.941337519734053    0.707378978203439  0.0000
  O3     O3        0.300492352196471    0.212006817371984    0.470416817425892  0.0000
  O2     O2        0.643074196203221    0.254159872186275    0.543912157313418  0.0000
  O3     O3        0.753215590759098    0.645639032439578    0.587201826768924  0.0000
  O2     O2        0.342697506457901    0.725867277196590    0.494568265132318  0.0000
  O3     O3        0.279005574605783    0.520151945380419    0.286520732638700  0.0000
  O3     O3        0.761800220208283    0.358844085256354    0.790391015673899  0.0000
  O3     O3        0.492008183094855    0.246790286912699    0.288158462342730  0.0000
  O2     O2        0.506644013946306    0.186196998870604    0.726547468043005  0.0000
  O3     O3        0.542331941977190    0.637805928374502    0.744455508655216  0.0000
  O2     O2        0.528522151646781    0.701806303902926    0.345918911583264  0.0000
  O1     O1        0.170128061863701    0.202364069360438    0.187894364947965  0.0000
  O3     O3        0.769241328389963    0.015547119945325    0.758319124267438  0.0000
  O1     O1        0.865395799224564    0.686629185396963    0.869722725275007  0.0000
  O3     O3        0.256941031213997    0.855328711254475    0.228296989806458  0.0000
  O2     O2        0.298684738440800    0.452267973764209    0.648621560189724  0.0000
  O2     O2        0.734209069546470    0.447774605552238    0.369959701428032  0.0000
  O2     O2        0.220920916188991    0.128486441681442    0.694058587425409  0.0000
  O2     O2        0.780148299654640    0.112185697911205    0.367851660638544  0.0000
  O2     O2        0.813509425687160    0.772210307642215    0.366190602807724  0.0000
  O2     O2        0.267544116085590    0.776282364786868    0.718012983356044  0.0000
  O2     O2        0.989463509396655    0.932007275326204    0.579915495625877  0.0000
  O3     O3        0.028619069287852    0.970641578157928    0.335100872228908  0.0000
  O3     O3        0.097667956479441    0.926847398549120    0.845677450393668  0.0000
  O1     O1        0.954694177706691    0.964544728312780    0.044017727356874  0.0000
