data_c00056.vasp
_audit_creation_method             Generated by GULP
_audit_author_name                 Salvador R. G. Balestra
_symmetry_space_group_name_H-M     'P 1             '
_symmetry_Int_Tables_number        1

loop_
_symmetry_equiv_pos_site_id
_symmetry_equiv_pos_as_xyz
_cell_length_a                        9.0458
_cell_length_b                        7.6871
_cell_length_c                       10.1488
_cell_angle_alpha                   89.1327
_cell_angle_beta                   106.5897
_cell_angle_gamma                   91.7348

loop_
_atom_site_label
_atom_site_type_symbol
_atom_site_fract_x
_atom_site_fract_y
_atom_site_fract_z
_atom_site_charge
  Ge     Ge        0.313819999999964    0.296860000000038    0.309830000000034  0.0000
  Ge     Ge        0.274640679814487    0.708731412211736    0.300348196630984  0.0000
  Ge     Ge        0.882197027400630    0.053455412555772    0.391558974905950  0.0000
  Ge     Ge        0.884147738638467    0.044378114477962    0.864464278803020  0.0000
  Si     Si        0.680340509677915    0.351096147992100    0.706115222973273  0.0000
  Si     Si        0.650561453867152    0.750383795436742    0.697613807663781  0.0000
  Si     Si        0.327550656938920    0.304531559416592    0.629385902287372  0.0000
  Si     Si        0.672824795095001    0.358288149993296    0.396837939346989  0.0000
  Si     Si        0.639108324762302    0.759319496571214    0.388488824374540  0.0000
  Si     Si        0.295006703412020    0.705429225976422    0.619041601837891  0.0000
  Si     Si        0.113191308000685    0.006414250574303    0.691325202433316  0.0000
  Si     Si        0.073929635837479    0.014446662783552    0.174477655386632  0.0000
  O3     O3        0.305420206782587    0.247813071323287    0.474533059268774  0.0000
  O2     O2        0.686175157661207    0.300933695025202    0.554284128534322  0.0000
  O2     O2        0.658638451497007    0.812362416849357    0.547065003476266  0.0000
  O3     O3        0.256513620778115    0.757673754006216    0.460963815072972  0.0000
  O1     O1        0.235425021028735    0.495783086522493    0.263229288342770  0.0000
  O2     O2        0.716271974783585    0.556704575198113    0.731131157239677  0.0000
  O3     O3        0.502970490927258    0.305072406762434    0.305590280820116  0.0000
  O2     O2        0.507781420500486    0.303882462452511    0.715698378407023  0.0000
  O2     O2        0.473019756318259    0.748423385523535    0.698727442009791  0.0000
  O3     O3        0.461906211181106    0.766087073908078    0.301980164766991  0.0000
  O3     O3        0.218885025517982    0.147600986035949    0.189745841007588  0.0000
  O3     O3        0.806250850487945    0.245413660612628    0.816015125432168  0.0000
  O3     O3        0.747282744627095    0.881106100324403    0.810167853682104  0.0000
  O3     O3        0.139424011999135    0.822324728920105    0.178840306147593  0.0000
  O2     O2        0.260708547574835    0.498170320767765    0.631984678875833  0.0000
  O2     O2        0.700102041011966    0.564831913656749    0.384553224962697  0.0000
  O2     O2        0.234730782344287    0.166355895931780    0.697791497784519  0.0000
  O3     O3        0.799733164329570    0.255479154587896    0.352428965438594  0.0000
  O3     O3        0.742105372986652    0.892526347495649    0.329635638217918  0.0000
  O2     O2        0.188869309878007    0.819446300240643    0.686119185249719  0.0000
  O3     O3        0.960315501870301    0.028088558419869    0.565916435594387  0.0000
  O3     O3        0.023166381362068    0.048892350946199    0.311651741303566  0.0000
  O3     O3        0.054369084552253    0.011223968005551    0.825424434965259  0.0000
  O3     O3        0.933298114884392    0.043859972252080    0.041982123234279  0.0000
