data_c00005.vasp
_audit_creation_method             Generated by GULP
_audit_author_name                 Salvador R. G. Balestra
_symmetry_space_group_name_H-M     'P 1             '
_symmetry_Int_Tables_number        1

loop_
_symmetry_equiv_pos_site_id
_symmetry_equiv_pos_as_xyz
_cell_length_a                        8.9255
_cell_length_b                        7.6650
_cell_length_c                       10.2818
_cell_angle_alpha                   88.9953
_cell_angle_beta                   107.2168
_cell_angle_gamma                   88.4543

loop_
_atom_site_label
_atom_site_type_symbol
_atom_site_fract_x
_atom_site_fract_y
_atom_site_fract_z
_atom_site_charge
  Ge     Ge        0.313819999999964    0.296860000000038    0.309830000000034  0.0000
  Ge     Ge        0.690817685984791    0.210604685632682    0.710822230782126  0.0000
  Ge     Ge        0.734549938978915    0.625077486138799    0.728468910412421  0.0000
  Ge     Ge        0.359247433860965    0.683695970127559    0.640346134716566  0.0000
  Si     Si        0.348973771599301    0.693289751268097    0.331671791927070  0.0000
  Si     Si        0.324783946450753    0.279701424963594    0.621684615540882  0.0000
  Si     Si        0.684864417475148    0.238190637058558    0.400212064379009  0.0000
  Si     Si        0.716547608463057    0.636538977402251    0.418604960765296  0.0000
  Si     Si        0.903255547329604    0.941605133076009    0.355653359400033  0.0000
  Si     Si        0.122271995874641    0.978391728637955    0.656982268223407  0.0000
  Si     Si        0.120412128416961    0.984891614253628    0.169149049667826  0.0000
  Si     Si        0.930827892630119    0.927517306964208    0.865429325957277  0.0000
  O3     O3        0.263673834377473    0.297557021526945    0.458585188841348  0.0000
  O3     O3        0.742271852146664    0.201188483872245    0.561428495752873  0.0000
  O3     O3        0.789587353204474    0.639227978090903    0.580003859248196  0.0000
  O3     O3        0.291807005001285    0.702512831494965    0.464686427015465  0.0000
  O3     O3        0.305539896143917    0.512869964155773    0.255269987444721  0.0000
  O1     O1        0.731339011805301    0.413212475122079    0.777848045268371  0.0000
  O3     O3        0.501215282704826    0.209873753077553    0.337447461580449  0.0000
  O3     O3        0.492004117956658    0.177800088760095    0.664137527013064  0.0000
  O1     O1        0.553872975288268    0.726511199371165    0.701504483774548  0.0000
  O2     O2        0.537338080233096    0.708265638354296    0.383070947789863  0.0000
  O3     O3        0.177724320052225    0.180273569940953    0.192530393040569  0.0000
  O3     O3        0.778904350165918    0.056245465213459    0.834802604814181  0.0000
  O3     O3        0.876178682014078    0.731091122473006    0.851421598362991  0.0000
  O2     O2        0.271801911457646    0.856737465052690    0.232245261048937  0.0000
  O3     O3        0.339534351317446    0.468297695715646    0.686909587886212  0.0000
  O2     O2        0.721058874051707    0.438614117429530    0.367662402980260  0.0000
  O2     O2        0.204169110967445    0.164779954453066    0.673548421683289  0.0000
  O2     O2        0.781975696786530    0.106970005718666    0.332020001928331  0.0000
  O2     O2        0.812033764843185    0.760641522465526    0.345696796747544  0.0000
  O3     O3        0.250056821999496    0.821901324562616    0.709275189778218  0.0000
  O2     O2        0.036434521899925    0.947909506329045    0.498620492754874  0.0000
  O2     O2        0.981266017365642    0.944454237184039    0.234031678197193  0.0000
  O2     O2        0.002198775038066    0.984518860732160    0.744407247595220  0.0000
  O2     O2        0.057339753542748    0.955012039751172    0.009011713293946  0.0000
