data_c00022.vasp
_audit_creation_method             Generated by GULP
_audit_author_name                 Salvador R. G. Balestra
_symmetry_space_group_name_H-M     'P 1             '
_symmetry_Int_Tables_number        1

loop_
_symmetry_equiv_pos_site_id
_symmetry_equiv_pos_as_xyz
_cell_length_a                        9.1132
_cell_length_b                        7.6796
_cell_length_c                       10.3818
_cell_angle_alpha                   89.1020
_cell_angle_beta                   109.2023
_cell_angle_gamma                   91.9233

loop_
_atom_site_label
_atom_site_type_symbol
_atom_site_fract_x
_atom_site_fract_y
_atom_site_fract_z
_atom_site_charge
  Ge     Ge        0.313819999999964    0.296860000000038    0.309830000000034  0.0000
  Ge     Ge        0.718966341694063    0.357405674545807    0.700314748767119  0.0000
  Ge     Ge        0.876024636803803    0.050425140663003    0.363135021549553  0.0000
  Ge     Ge        0.127435035443406    0.006786592605468    0.673264456655982  0.0000
  Si     Si        0.674234540465126    0.758683665230917    0.684255083066839  0.0000
  Si     Si        0.283225356633912    0.704924506076492    0.299068647712071  0.0000
  Si     Si        0.349978600678605    0.299447097465250    0.621182272700713  0.0000
  Si     Si        0.681088781550954    0.356148116922215    0.386902843691715  0.0000
  Si     Si        0.639785776024266    0.751854736829874    0.372470777022327  0.0000
  Si     Si        0.317601871063992    0.703528354744471    0.608374124444794  0.0000
  Si     Si        0.080652537965804    0.007711978257234    0.162468520456624  0.0000
  Si     Si        0.913716276182688    0.044340423560897    0.852556456439858  0.0000
  O3     O3        0.277540111201040    0.254003800368993    0.461044369199950  0.0000
  O3     O3        0.758101841578577    0.343834929062347    0.550017721367400  0.0000
  O2     O2        0.695983715016328    0.772819504342125    0.536342351712117  0.0000
  O2     O2        0.257170139002590    0.728728744697637    0.444537491402364  0.0000
  O3     O3        0.261320574508194    0.506636977175294    0.255018699008104  0.0000
  O3     O3        0.733115570200681    0.573603782806180    0.750036247680765  0.0000
  O3     O3        0.508754101608735    0.271500047405161    0.343776829024171  0.0000
  O3     O3        0.533529415158332    0.276432678552599    0.676907144963007  0.0000
  O2     O2        0.494023751100882    0.779023732326209    0.669629592952857  0.0000
  O2     O2        0.455240550547514    0.779529956230593    0.310954534447547  0.0000
  O3     O3        0.212763249855376    0.157822161386176    0.181365788792051  0.0000
  O3     O3        0.858012055105662    0.240782424907871    0.819801898763722  0.0000
  O2     O2        0.768172371222990    0.918031270273883    0.773854405952560  0.0000
  O2     O2        0.157813534816732    0.818665222138509    0.187826181333396  0.0000
  O2     O2        0.313538764429260    0.499553169788417    0.643572896787192  0.0000
  O2     O2        0.673340545864490    0.556456452923982    0.336937081135855  0.0000
  O3     O3        0.266993882195498    0.171766920767071    0.699552841836014  0.0000
  O3     O3        0.784710995470285    0.248002076112058    0.322087673016499  0.0000
  O3     O3        0.733549206365110    0.885887113317626    0.310206218466500  0.0000
  O3     O3        0.207906544288653    0.806332583968657    0.668941444297493  0.0000
  O1     O1        0.967630563511671    0.034871369342272    0.534305738301028  0.0000
  O3     O3        0.004913823998590    0.045201371820613    0.277179317701970  0.0000
  O3     O3        0.064244762001034    0.005761147588601    0.813134657454862  0.0000
  O2     O2        0.953450474487791    0.010709713492914    0.013817151220421  0.0000
