data_c00079.vasp
_audit_creation_method             Generated by GULP
_audit_author_name                 Salvador R. G. Balestra
_symmetry_space_group_name_H-M     'P 1             '
_symmetry_Int_Tables_number        1

loop_
_symmetry_equiv_pos_site_id
_symmetry_equiv_pos_as_xyz
_cell_length_a                        9.0526
_cell_length_b                        7.6896
_cell_length_c                       10.2520
_cell_angle_alpha                   86.2006
_cell_angle_beta                   108.9647
_cell_angle_gamma                   91.1546

loop_
_atom_site_label
_atom_site_type_symbol
_atom_site_fract_x
_atom_site_fract_y
_atom_site_fract_z
_atom_site_charge
  Ge     Ge        0.313819999999964    0.296860000000038    0.309830000000034  0.0000
  Ge     Ge        0.359825531168704    0.240375709236822    0.634580255291529  0.0000
  Ge     Ge        0.127108609531675    0.944780296435763    0.695239947876475  0.0000
  Ge     Ge        0.901492126051598    0.987402154976391    0.869640449222908  0.0000
  Si     Si        0.707274264221087    0.312026218132793    0.709022041683816  0.0000
  Si     Si        0.669892529508095    0.699344600499568    0.714049954935503  0.0000
  Si     Si        0.287496560191235    0.707321137026761    0.321238863618027  0.0000
  Si     Si        0.665405664541079    0.352174609597829    0.389645708851870  0.0000
  Si     Si        0.648657052687595    0.742833708430603    0.402246782320422  0.0000
  Si     Si        0.308896353745604    0.646975711884575    0.626160700349252  0.0000
  Si     Si        0.875872446834514    0.040550318540022    0.394143857957227  0.0000
  Si     Si        0.068517855392743    0.017621273751751    0.186671215620237  0.0000
  O1     O1        0.322942505129577    0.193903872891108    0.465700556802656  0.0000
  O2     O2        0.645959266079891    0.320684893966220    0.540994533481057  0.0000
  O2     O2        0.684654001742046    0.764863940573602    0.565238615594626  0.0000
  O2     O2        0.273622393067275    0.735715896814209    0.471235635469160  0.0000
  O3     O3        0.248050197524393    0.510234932193787    0.285895422706990  0.0000
  O2     O2        0.749861839625361    0.508322047840263    0.758167924531605  0.0000
  O3     O3        0.496532586476031    0.307007079241640    0.287260200827463  0.0000
  O3     O3        0.553627812597381    0.239067315779669    0.739339664589441  0.0000
  O2     O2        0.491020854602174    0.682740292350734    0.708773890152635  0.0000
  O2     O2        0.463424269666392    0.757204565103533    0.322984774106107  0.0000
  O3     O3        0.184204519419832    0.177822253343473    0.185832005429455  0.0000
  O3     O3        0.852290048221220    0.189406204523592    0.779453544918095  0.0000
  O3     O3        0.752699274851794    0.836728137215720    0.822159120725442  0.0000
  O2     O2        0.167182341254481    0.838101763972763    0.211182388329190  0.0000
  O3     O3        0.276666172955825    0.443906497754936    0.624939168374660  0.0000
  O2     O2        0.709620057716007    0.556666711502692    0.373099040152956  0.0000
  O1     O1        0.273490552214902    0.092484374014091    0.717200882045672  0.0000
  O2     O2        0.799529689650696    0.233936083046654    0.369455987139335  0.0000
  O2     O2        0.739080437314144    0.895943520217365    0.344859549675924  0.0000
  O3     O3        0.196388728003445    0.738326220749736    0.690758290984161  0.0000
  O3     O3        0.967391368186036    0.005921353581698    0.554055313566651  0.0000
  O2     O2        0.992404258010215    0.037949649388792    0.306615622336203  0.0000
  O1     O1        0.063030092334919    0.925804959104931    0.835535740468753  0.0000
  O3     O3        0.933932945500386    0.014610888658539    0.041808520365588  0.0000
