data_c00016.vasp
_audit_creation_method             Generated by GULP
_audit_author_name                 Salvador R. G. Balestra
_symmetry_space_group_name_H-M     'P 1             '
_symmetry_Int_Tables_number        1

loop_
_symmetry_equiv_pos_site_id
_symmetry_equiv_pos_as_xyz
_cell_length_a                        8.9837
_cell_length_b                        7.7208
_cell_length_c                       10.2578
_cell_angle_alpha                   89.5083
_cell_angle_beta                   107.4960
_cell_angle_gamma                   91.4207

loop_
_atom_site_label
_atom_site_type_symbol
_atom_site_fract_x
_atom_site_fract_y
_atom_site_fract_z
_atom_site_charge
  Ge     Ge        0.313819999999964    0.296860000000038    0.309830000000034  0.0000
  Ge     Ge        0.699857914987096    0.352166708936678    0.720494996642004  0.0000
  Ge     Ge        0.333561619715835    0.288184170355352    0.632863459757857  0.0000
  Ge     Ge        0.894323928335567    0.027489397223496    0.866422354134612  0.0000
  Si     Si        0.658448337075132    0.743394649115440    0.700882698469498  0.0000
  Si     Si        0.290320545532972    0.702861665808890    0.307338988397552  0.0000
  Si     Si        0.671990307716263    0.345137290140569    0.396557612178699  0.0000
  Si     Si        0.650069578266217    0.739362343040032    0.392939354055752  0.0000
  Si     Si        0.297614238553411    0.686632232138614    0.611338074375552  0.0000
  Si     Si        0.878412199223847    0.037734706187444    0.386787768312724  0.0000
  Si     Si        0.111874947398610    0.987825378923111    0.682109408799265  0.0000
  Si     Si        0.076823808145304    0.003792661536646    0.181152551113676  0.0000
  O1     O1        0.316657276777894    0.225562488887715    0.468801861715151  0.0000
  O3     O3        0.667386782388712    0.309753920963118    0.548848903050954  0.0000
  O2     O2        0.667701474960331    0.785951639580314    0.549064652058736  0.0000
  O2     O2        0.278655320177001    0.747930755354073    0.456994957507297  0.0000
  O3     O3        0.244209624127021    0.504937357205473    0.274549895704896  0.0000
  O3     O3        0.749983005463313    0.569123893344775    0.754748001847392  0.0000
  O3     O3        0.501547354122814    0.301617849776889    0.296256984736247  0.0000
  O1     O1        0.520713230362539    0.297473370743200    0.738770040855452  0.0000
  O2     O2        0.480185301556616    0.703604941346166    0.697484126742655  0.0000
  O2     O2        0.468003084673562    0.743224998908031    0.304734318778961  0.0000
  O3     O3        0.195696755133311    0.163344409155250    0.185859532077831  0.0000
  O1     O1        0.848579822678714    0.238629256241630    0.825089903597068  0.0000
  O3     O3        0.725118917348030    0.906352405070643    0.794403226753216  0.0000
  O2     O2        0.173485094688700    0.826766587360670    0.199923497747142  0.0000
  O3     O3        0.246290994945909    0.489675743762486    0.617893431576622  0.0000
  O2     O2        0.716742397806266    0.548831367601264    0.381746193361295  0.0000
  O3     O3        0.231524788960228    0.147912661463901    0.707373964513759  0.0000
  O2     O2        0.798832989661185    0.225410446485177    0.360285122166601  0.0000
  O2     O2        0.748397028045008    0.883514563840586    0.336954076986510  0.0000
  O2     O2        0.195612892264335    0.809200114487306    0.672936986784175  0.0000
  O2     O2        0.966285701776712    0.020681176743142    0.547296948869237  0.0000
  O2     O2        0.001215325730725    0.030897920492642    0.303211729676549  0.0000
  O3     O3        0.045667477037511    0.965049838316441    0.809080228731824  0.0000
  O3     O3        0.942180617006806    0.996937378079381    0.039955034083875  0.0000
