data_c00099.vasp
_audit_creation_method             Generated by GULP
_audit_author_name                 Salvador R. G. Balestra
_symmetry_space_group_name_H-M     'P 1             '
_symmetry_Int_Tables_number        1

loop_
_symmetry_equiv_pos_site_id
_symmetry_equiv_pos_as_xyz
_cell_length_a                        9.0808
_cell_length_b                        7.6628
_cell_length_c                       10.0746
_cell_angle_alpha                   84.4019
_cell_angle_beta                   108.3664
_cell_angle_gamma                   91.5904

loop_
_atom_site_label
_atom_site_type_symbol
_atom_site_fract_x
_atom_site_fract_y
_atom_site_fract_z
_atom_site_charge
  Ge     Ge        0.313819999999964    0.296860000000038    0.309830000000034  0.0000
  Ge     Ge        0.644586733582501    0.744294187130158    0.409482952206566  0.0000
  Ge     Ge        0.297041050046045    0.636467103647988    0.640919999050874  0.0000
  Ge     Ge        0.890472235812857    0.984076444471902    0.868932821436587  0.0000
  Si     Si        0.678270307007383    0.305869817184108    0.705349593750308  0.0000
  Si     Si        0.664023654794295    0.691987255695867    0.729215438485824  0.0000
  Si     Si        0.276473486265802    0.701389943438064    0.320931863400464  0.0000
  Si     Si        0.336608326591965    0.232445861623737    0.639511327037479  0.0000
  Si     Si        0.661830485635943    0.354889853925871    0.386550463210785  0.0000
  Si     Si        0.876871299609716    0.043671416489741    0.398544111682394  0.0000
  Si     Si        0.113163021154119    0.937160027346141    0.698411665247640  0.0000
  Si     Si        0.065945229009420    0.022411195888102    0.186336827391371  0.0000
  O3     O3        0.297322749905328    0.230542216354364    0.472971327530717  0.0000
  O2     O2        0.642203018048879    0.372077901646036    0.540718196021376  0.0000
  O3     O3        0.710120669914063    0.751008259521418    0.589727698705976  0.0000
  O3     O3        0.229068757149235    0.675474356183565    0.461375250750460  0.0000
  O3     O3        0.271759274086074    0.516439456249473    0.259602600671067  0.0000
  O2     O2        0.705373703201487    0.485755961229695    0.781612283494059  0.0000
  O3     O3        0.500599813080767    0.271863756830158    0.300944363153134  0.0000
  O2     O2        0.521880680252917    0.208287387587012    0.718268466696820  0.0000
  O3     O3        0.482412808730660    0.716436063451509    0.702654409116656  0.0000
  O3     O3        0.447870533412864    0.783731737958010    0.354150024432482  0.0000
  O3     O3        0.191181452174944    0.174241825312992    0.187926867411483  0.0000
  O3     O3        0.818696397704979    0.175118735635238    0.764026883726014  0.0000
  O3     O3        0.763590585873998    0.810945791880613    0.847180914910439  0.0000
  O2     O2        0.152033260732829    0.834739510427056    0.211573122459542  0.0000
  O3     O3        0.285211818546001    0.413319096901207    0.679661101266629  0.0000
  O3     O3        0.684162413294994    0.557194057931156    0.341081038729898  0.0000
  O2     O2        0.254026700042800    0.069391720476213    0.698405684678800  0.0000
  O2     O2        0.807018848512226    0.238680363365138    0.389493531672944  0.0000
  O3     O3        0.738668710529144    0.910865580487763    0.340819377663179  0.0000
  O3     O3        0.173511595115666    0.741279014507306    0.705376986702392  0.0000
  O2     O2        0.965403150731395    0.982485354507419    0.560847989853959  0.0000
  O2     O2        0.994807010096434    0.054969340968739    0.309664190111426  0.0000
  O3     O3        0.059706600056714    0.944452895973388    0.833782110956479  0.0000
  O3     O3        0.931348454320067    0.030791095892575    0.040352692443223  0.0000
