data_c00001.vasp
_audit_creation_method             Generated by GULP
_audit_author_name                 Salvador R. G. Balestra
_symmetry_space_group_name_H-M     'P 1             '
_symmetry_Int_Tables_number        1

loop_
_symmetry_equiv_pos_site_id
_symmetry_equiv_pos_as_xyz
_cell_length_a                        8.9347
_cell_length_b                        7.5846
_cell_length_c                       10.3315
_cell_angle_alpha                   89.7332
_cell_angle_beta                   106.4020
_cell_angle_gamma                   92.2467

loop_
_atom_site_label
_atom_site_type_symbol
_atom_site_fract_x
_atom_site_fract_y
_atom_site_fract_z
_atom_site_charge
  Ge     Ge        0.313819999999964    0.296860000000038    0.309830000000034  0.0000
  Ge     Ge        0.684068963488905    0.379552704264088    0.709603511581966  0.0000
  Ge     Ge        0.638378397509184    0.792125031948800    0.688476615936352  0.0000
  Ge     Ge        0.264177966050188    0.706806662034832    0.288685620881980  0.0000
  Si     Si        0.317271036920293    0.310684158375355    0.618368158775968  0.0000
  Si     Si        0.678323131597820    0.374589790228689    0.401325840138667  0.0000
  Si     Si        0.631699568791570    0.778080615097785    0.379927006379167  0.0000
  Si     Si        0.273895626867607    0.712020560400051    0.597960652471177  0.0000
  Si     Si        0.863616679967496    0.070265082843556    0.341841565378496  0.0000
  Si     Si        0.081935070213037    0.016292525019017    0.637958926326980  0.0000
  Si     Si        0.068759200475875    0.012537141523345    0.146125062563696  0.0000
  Si     Si        0.882322608676804    0.073829905618240    0.842346510620710  0.0000
  O3     O3        0.260802098275702    0.285740509861737    0.457832487576311  0.0000
  O3     O3        0.739014540438019    0.377657738752124    0.562030436006023  0.0000
  O3     O3        0.690744974883009    0.809184514633350    0.539966575805310  0.0000
  O3     O3        0.212184012154720    0.702772623420059    0.437341773046395  0.0000
  O1     O1        0.266770310267556    0.496096467001771    0.234047316414158  0.0000
  O1     O1        0.682999757678495    0.590536517219508    0.761655545948838  0.0000
  O3     O3        0.512108070695918    0.273076396601033    0.353699439492105  0.0000
  O3     O3        0.499655264703505    0.277594286401806    0.677485471768108  0.0000
  O3     O3        0.439803996684293    0.814944266778228    0.642274814075571  0.0000
  O3     O3        0.448973881869977    0.807370218215126    0.320674031881943  0.0000
  O3     O3        0.227166575192283    0.129083934341963    0.201533373208450  0.0000
  O3     O3        0.826040988446727    0.271512619359128    0.828352240844170  0.0000
  O3     O3        0.726046450619919    0.950259134950695    0.806169751166111  0.0000
  O3     O3        0.118827146673918    0.813089209189764    0.172423120928865  0.0000
  O2     O2        0.289025418300837    0.512702956318322    0.656652874262455  0.0000
  O2     O2        0.663941365293012    0.575598337894335    0.346290803402444  0.0000
  O2     O2        0.214823849902167    0.173556786097163    0.682130650277251  0.0000
  O2     O2        0.795912213231514    0.264736290297506    0.341873198070648  0.0000
  O2     O2        0.728394266477914    0.915748505058225    0.311515552682826  0.0000
  O2     O2        0.157363320152980    0.823920747116241    0.657537708317818  0.0000
  O2     O2        0.990519482741279    0.036583460966524    0.482026857543847  0.0000
  O2     O2        0.943659993564337    0.071174223516578    0.221539789427600  0.0000
  O2     O2        0.967833729643613    0.021559770263898    0.730966377137880  0.0000
  O2     O2        0.996845604073667    0.041166545372340    0.988090077495213  0.0000
