data_c00042.vasp
_audit_creation_method             Generated by GULP
_audit_author_name                 Salvador R. G. Balestra
_symmetry_space_group_name_H-M     'P 1             '
_symmetry_Int_Tables_number        1

loop_
_symmetry_equiv_pos_site_id
_symmetry_equiv_pos_as_xyz
_cell_length_a                        8.9816
_cell_length_b                        7.6632
_cell_length_c                       10.2672
_cell_angle_alpha                   91.3419
_cell_angle_beta                   107.2383
_cell_angle_gamma                   87.8235

loop_
_atom_site_label
_atom_site_type_symbol
_atom_site_fract_x
_atom_site_fract_y
_atom_site_fract_z
_atom_site_charge
  Ge     Ge        0.313819999999964    0.296860000000038    0.309830000000034  0.0000
  Ge     Ge        0.361812507714621    0.708484031646716    0.319080891858124  0.0000
  Ge     Ge        0.330817865246182    0.309299199519979    0.630847629116585  0.0000
  Ge     Ge        0.689665471219904    0.237260943755614    0.401041016441780  0.0000
  Si     Si        0.701787875294326    0.252526227731038    0.712234466893598  0.0000
  Si     Si        0.728249834864493    0.648319510232408    0.715088728393684  0.0000
  Si     Si        0.724645866367641    0.643423371725405    0.410119442291896  0.0000
  Si     Si        0.368012480209403    0.709717965728569    0.632913120588027  0.0000
  Si     Si        0.927186483158484    0.942588201252987    0.380792275081613  0.0000
  Si     Si        0.143343882277329    0.004262162478338    0.682984044541523  0.0000
  Si     Si        0.117588587130166    0.988113841426129    0.172109449207547  0.0000
  Si     Si        0.925821024681735    0.955792272162566    0.865647275246533  0.0000
  O1     O1        0.261324957638490    0.295015374053085    0.457473905163458  0.0000
  O3     O3        0.752585326839697    0.221251406373706    0.576689155467186  0.0000
  O2     O2        0.772880464492692    0.638356517060790    0.574926516979136  0.0000
  O3     O3        0.312362880604556    0.718997060273295    0.469846325182136  0.0000
  O1     O1        0.321115519900259    0.502477032193439    0.253544320134946  0.0000
  O2     O2        0.737530176715872    0.451338470680529    0.770574316377944  0.0000
  O1     O1        0.495990682387816    0.196832602897377    0.342859194604653  0.0000
  O3     O3        0.519740462845062    0.223764756607229    0.680374100740973  0.0000
  O2     O2        0.554562071028612    0.730805093342608    0.686916808013334  0.0000
  O3     O3        0.558852586771019    0.742945923140411    0.354843747310149  0.0000
  O3     O3        0.173719221083371    0.183906253692132    0.187499551362214  0.0000
  O2     O2        0.801686221385809    0.116465923465874    0.824207098843404  0.0000
  O2     O2        0.846445126619347    0.770177017829632    0.823088804865711  0.0000
  O3     O3        0.269178589465273    0.860386364658016    0.199922659310365  0.0000
  O3     O3        0.326436108526635    0.525479961791708    0.681026102079284  0.0000
  O3     O3        0.717563647766478    0.447516680423920    0.353824518243780  0.0000
  O3     O3        0.213525058811346    0.194756508428276    0.701732854685110  0.0000
  O3     O3        0.794580401151968    0.092030620371234    0.329526168876970  0.0000
  O2     O2        0.853215782216515    0.751747010639236    0.368303211401502  0.0000
  O2     O2        0.286990695919436    0.866176554930542    0.696101386769179  0.0000
  O2     O2        0.014687153587406    0.986534114878984    0.537787415220587  0.0000
  O2     O2        0.045114282823009    0.935894439863049    0.291727337841327  0.0000
  O2     O2        0.068847348540759    0.972859826491680    0.803691804936949  0.0000
  O2     O2        0.991719089370616    0.955637825593605    0.028094640290616  0.0000
