data_c00063.vasp
_audit_creation_method             Generated by GULP
_audit_author_name                 Salvador R. G. Balestra
_symmetry_space_group_name_H-M     'P 1             '
_symmetry_Int_Tables_number        1

loop_
_symmetry_equiv_pos_site_id
_symmetry_equiv_pos_as_xyz
_cell_length_a                        9.2184
_cell_length_b                        7.7228
_cell_length_c                       10.2475
_cell_angle_alpha                   86.7449
_cell_angle_beta                   111.1650
_cell_angle_gamma                   89.3683

loop_
_atom_site_label
_atom_site_type_symbol
_atom_site_fract_x
_atom_site_fract_y
_atom_site_fract_z
_atom_site_charge
  Ge     Ge        0.313819999999964    0.296860000000038    0.309830000000034  0.0000
  Ge     Ge        0.362171023273431    0.264971381404048    0.638041443140731  0.0000
  Ge     Ge        0.669754349452489    0.317603175288167    0.380926190932429  0.0000
  Ge     Ge        0.156484004952915    0.959033478501417    0.695342736847474  0.0000
  Si     Si        0.709374071854380    0.273602747994304    0.707053027121299  0.0000
  Si     Si        0.726746761951695    0.657682518149787    0.718866964414530  0.0000
  Si     Si        0.315304948896703    0.708949078784220    0.329261662719945  0.0000
  Si     Si        0.676205120848129    0.708697737405551    0.399476557815091  0.0000
  Si     Si        0.365457080652588    0.672887716605446    0.641488472775241  0.0000
  Si     Si        0.892170619459841    0.000559220769166    0.383409286591113  0.0000
  Si     Si        0.080252321364189    0.011176332115419    0.176853341898856  0.0000
  Si     Si        0.932764858537080    0.956678685032562    0.860071301970128  0.0000
  O1     O1        0.320507165225996    0.207584005965061    0.469610027717738  0.0000
  O3     O3        0.639288800085715    0.306887360681618    0.538792772209939  0.0000
  O2     O2        0.735454972252969    0.713811812731457    0.568278773146754  0.0000
  O2     O2        0.313374629872733    0.754098024536348    0.480911911758212  0.0000
  O3     O3        0.262283844056674    0.516112429945362    0.295666833598874  0.0000
  O2     O2        0.785736998782990    0.456680597471435    0.766159723877480  0.0000
  O1     O1        0.483299952749166    0.276150299584859    0.276037337868141  0.0000
  O3     O3        0.558408013307471    0.228966225415177    0.742921856520566  0.0000
  O2     O2        0.552075370566152    0.674733914228901    0.715015463937659  0.0000
  O2     O2        0.489466630034801    0.728931348581654    0.330155278128084  0.0000
  O3     O3        0.167351196480924    0.189423607686965    0.188067765003338  0.0000
  O2     O2        0.839239107767014    0.120270965412277    0.756032286752160  0.0000
  O2     O2        0.833919873983043    0.782840968843311    0.830847580458992  0.0000
  O2     O2        0.205221157059090    0.850530062395947    0.215591146621377  0.0000
  O3     O3        0.308943082251963    0.479295769824919    0.639801591772127  0.0000
  O3     O3        0.724732242060373    0.528036521634325    0.356560349121751  0.0000
  O1     O1        0.248374570792796    0.149865835369140    0.708434975461328  0.0000
  O3     O3        0.820345978069642    0.193015217694971    0.374427406519097  0.0000
  O2     O2        0.748502346501128    0.869744463206049    0.340436614519610  0.0000
  O3     O3        0.291773826395724    0.791010332637958    0.723767677508534  0.0000
  O3     O3        0.006220227061618    0.943179238934885    0.537756458687385  0.0000
  O2     O2        0.977605203944112    0.997663667514353    0.273631611775999  0.0000
  O3     O3        0.089275042028756    0.930417968781009    0.831702952268360  0.0000
  O2     O2        0.962296699849035    0.999733650905773    0.018136160351190  0.0000
