data_c00032.vasp
_audit_creation_method             Generated by GULP
_audit_author_name                 Salvador R. G. Balestra
_symmetry_space_group_name_H-M     'P 1             '
_symmetry_Int_Tables_number        1

loop_
_symmetry_equiv_pos_site_id
_symmetry_equiv_pos_as_xyz
_cell_length_a                        9.1718
_cell_length_b                        7.6479
_cell_length_c                       10.0359
_cell_angle_alpha                   84.3714
_cell_angle_beta                   108.0089
_cell_angle_gamma                   90.6178

loop_
_atom_site_label
_atom_site_type_symbol
_atom_site_fract_x
_atom_site_fract_y
_atom_site_fract_z
_atom_site_charge
  Ge     Ge        0.313819999999964    0.296860000000038    0.309830000000034  0.0000
  Ge     Ge        0.669736461340395    0.670200291783529    0.730059354352298  0.0000
  Ge     Ge        0.344819785984073    0.217428009310692    0.646166546713054  0.0000
  Ge     Ge        0.922635800841129    0.935778428480335    0.871214381145291  0.0000
  Si     Si        0.700067648987516    0.255966051812900    0.720064751665018  0.0000
  Si     Si        0.321656580304286    0.683269032080614    0.333631508508169  0.0000
  Si     Si        0.673274448663265    0.320781561442420    0.399551830988365  0.0000
  Si     Si        0.664113101476712    0.724033271538367    0.410951373322855  0.0000
  Si     Si        0.327212247023936    0.613352730865935    0.646552387737427  0.0000
  Si     Si        0.875486108169984    0.027260502029128    0.360335915548916  0.0000
  Si     Si        0.115337263837114    0.921526566851540    0.657228805959809  0.0000
  Si     Si        0.099567126759884    0.998710254154481    0.188215440194689  0.0000
  O1     O1        0.296427411823966    0.210275704364778    0.467710172727219  0.0000
  O2     O2        0.691043431497253    0.241772082461833    0.558124875817147  0.0000
  O3     O3        0.689496183346286    0.760691049263603    0.570807098972939  0.0000
  O2     O2        0.362124087379711    0.596884079261439    0.497071490996892  0.0000
  O3     O3        0.257330915649354    0.516662278663210    0.252135532389616  0.0000
  O3     O3        0.724187470722044    0.452562531753078    0.759962513683265  0.0000
  O3     O3        0.501114238596114    0.294072802719850    0.306311583350837  0.0000
  O3     O3        0.539085786003418    0.181782744473541    0.730210200033218  0.0000
  O3     O3        0.484993965001671    0.687527028453228    0.741065451224775  0.0000
  O2     O2        0.484498712631647    0.752051636048346    0.318671740225850  0.0000
  O3     O3        0.195271852154637    0.173715519617486    0.186161564340514  0.0000
  O3     O3        0.843682871808485    0.144172778250872    0.821694651002476  0.0000
  O1     O1        0.781403012583213    0.785796457153768    0.858807058554285  0.0000
  O2     O2        0.206136026072370    0.847577839926417    0.299488555615093  0.0000
  O3     O3        0.294753358485908    0.415949448043471    0.693978872825739  0.0000
  O2     O2        0.718032248890288    0.526518261495064    0.399076026450726  0.0000
  O3     O3        0.249065312588611    0.056027720786129    0.715586558156844  0.0000
  O2     O2        0.786409087784267    0.213564301228073    0.340524269405785  0.0000
  O2     O2        0.761260860621850    0.863780755321482    0.345025744520065  0.0000
  O2     O2        0.183937458210324    0.739613436848684    0.629438804800462  0.0000
  O2     O2        0.005448023671771    0.013740244162883    0.510064738406641  0.0000
  O2     O2        0.949566674230885    0.033277685513331    0.234604376810366  0.0000
  O3     O3        0.025217565722965    0.871204111645233    0.765850084892206  0.0000
  O3     O3        0.049893388957111    0.927589067191411    0.037826781777866  0.0000
