data_c00002.vasp
_audit_creation_method             Generated by GULP
_audit_author_name                 Salvador R. G. Balestra
_symmetry_space_group_name_H-M     'P 1             '
_symmetry_Int_Tables_number        1

loop_
_symmetry_equiv_pos_site_id
_symmetry_equiv_pos_as_xyz
_cell_length_a                        9.0772
_cell_length_b                        7.6662
_cell_length_c                       10.0770
_cell_angle_alpha                   86.2161
_cell_angle_beta                   107.5950
_cell_angle_gamma                   90.9280

loop_
_atom_site_label
_atom_site_type_symbol
_atom_site_fract_x
_atom_site_fract_y
_atom_site_fract_z
_atom_site_charge
  Ge     Ge        0.313819999999964    0.296860000000038    0.309830000000034  0.0000
  Ge     Ge        0.712112833655654    0.289771634476550    0.721277902462305  0.0000
  Ge     Ge        0.669635269291524    0.708383940814752    0.719064263639670  0.0000
  Ge     Ge        0.337298707099035    0.244486485284305    0.635453937344032  0.0000
  Si     Si        0.314098010624453    0.685764101119246    0.320704711888374  0.0000
  Si     Si        0.685958908203830    0.333494289563820    0.401292205345373  0.0000
  Si     Si        0.660241906586968    0.736263653100087    0.395614447215306  0.0000
  Si     Si        0.321005295713348    0.642099909761119    0.635438238145265  0.0000
  Si     Si        0.874795758824154    0.037684709794430    0.348068676104057  0.0000
  Si     Si        0.106988010698613    0.948422316042492    0.648379732753632  0.0000
  Si     Si        0.098211149339203    0.999897237113038    0.173812335354186  0.0000
  Si     Si        0.920516655395918    0.972090736560045    0.862463717311980  0.0000
  O1     O1        0.267472078917942    0.233711863508944    0.457705557812904  0.0000
  O3     O3        0.753907290015611    0.293179852435388    0.565209937413043  0.0000
  O3     O3        0.696543357866561    0.762728983494418    0.558452316366342  0.0000
  O2     O2        0.337581513770137    0.610721700131865    0.481072137960861  0.0000
  O3     O3        0.270199616783702    0.511364701568747    0.240257490736686  0.0000
  O1     O1        0.718003988463232    0.496336196369612    0.774867119921921  0.0000
  O3     O3        0.510448320768462    0.273247095229279    0.346688354805797  0.0000
  O1     O1        0.531782260974403    0.201383357809966    0.696162327680178  0.0000
  O3     O3        0.478373851387390    0.735587384299957    0.714699813783657  0.0000
  O2     O2        0.477795113299157    0.768591481628137    0.315770604863806  0.0000
  O3     O3        0.210552526145087    0.163033127308381    0.182755895925544  0.0000
  O3     O3        0.859890636702620    0.169496222977637    0.837824351461704  0.0000
  O3     O3        0.773072742687349    0.847476013816623    0.839154496719465  0.0000
  O2     O2        0.186863243140682    0.835952311079748    0.272533545602458  0.0000
  O3     O3        0.305417149922728    0.446231528824603    0.693556697585485  0.0000
  O2     O2        0.703823523962287    0.541084981527291    0.368080328955045  0.0000
  O3     O3        0.240105641354492    0.086448732023911    0.706792079434085  0.0000
  O2     O2        0.785586415122007    0.222452029412491    0.327663875446984  0.0000
  O2     O2        0.756050759647449    0.875907990960354    0.329645551955299  0.0000
  O2     O2        0.175800796361240    0.760473893312158    0.631533119074823  0.0000
  O2     O2        0.002324872200016    0.022036512710812    0.497543572597340  0.0000
  O2     O2        0.951651654850599    0.043990651647628    0.224241399930065  0.0000
  O2     O2        0.006419066967203    0.915193490726601    0.753260405000157  0.0000
  O2     O2        0.039550583119066    0.942486613712838    0.016392971177327  0.0000
