data_c00098.vasp
_audit_creation_method             Generated by GULP
_audit_author_name                 Salvador R. G. Balestra
_symmetry_space_group_name_H-M     'P 1             '
_symmetry_Int_Tables_number        1

loop_
_symmetry_equiv_pos_site_id
_symmetry_equiv_pos_as_xyz
_cell_length_a                        9.0640
_cell_length_b                        7.6583
_cell_length_c                       10.3877
_cell_angle_alpha                   87.6533
_cell_angle_beta                   107.3859
_cell_angle_gamma                   91.4916

loop_
_atom_site_label
_atom_site_type_symbol
_atom_site_fract_x
_atom_site_fract_y
_atom_site_fract_z
_atom_site_charge
  Ge     Ge        0.313819999999964    0.296860000000038    0.309830000000034  0.0000
  Ge     Ge        0.630355459288288    0.756598921701711    0.392222148328970  0.0000
  Ge     Ge        0.282268542306674    0.678426615575410    0.620026795755640  0.0000
  Ge     Ge        0.065992931082043    0.011599429257036    0.149056281060288  0.0000
  Si     Si        0.668882715619242    0.332992675578204    0.702270187235402  0.0000
  Si     Si        0.646335713867744    0.730661197842294    0.703143996491360  0.0000
  Si     Si        0.271120366854366    0.702162579813710    0.308241097989504  0.0000
  Si     Si        0.309845271926533    0.277860000800586    0.614779995599664  0.0000
  Si     Si        0.672077334682201    0.349687125029065    0.402746117321652  0.0000
  Si     Si        0.861445356166612    0.050131892593193    0.346013119436453  0.0000
  Si     Si        0.082036428935989    0.984135367031802    0.639814283321957  0.0000
  Si     Si        0.873697953763678    0.022455814391362    0.832262446584300  0.0000
  O3     O3        0.256037866796147    0.265149476877089    0.453622117436699  0.0000
  O2     O2        0.716996589279809    0.346336388135331    0.565573475946678  0.0000
  O3     O3        0.689470486296470    0.768327060792235    0.565579629866886  0.0000
  O3     O3        0.228125488600417    0.688171018780311    0.447050123014538  0.0000
  O3     O3        0.286322571098185    0.512556730182970    0.255390914475597  0.0000
  O2     O2        0.679531274353216    0.528442518436845    0.757542312413759  0.0000
  O3     O3        0.507909743644034    0.253971603678324    0.344441150046741  0.0000
  O2     O2        0.495263524208652    0.255812621333744    0.669039876325603  0.0000
  O3     O3        0.467273052932776    0.763329848341091    0.681406089084980  0.0000
  O3     O3        0.436001274940653    0.801865678057358    0.334725388869625  0.0000
  O1     O1        0.211432704458106    0.164573247804848    0.187438756150066  0.0000
  O2     O2        0.781252547821891    0.204585614358877    0.812260694133533  0.0000
  O2     O2        0.753224916283870    0.859042513049713    0.813542731867895  0.0000
  O3     O3        0.137394046202181    0.806442286733401    0.199953123842458  0.0000
  O3     O3        0.270318567642741    0.460711798662764    0.665004082761851  0.0000
  O3     O3        0.666349096308142    0.548529481651532    0.349160794048286  0.0000
  O2     O2        0.224673102126750    0.123087803090493    0.675425121122687  0.0000
  O2     O2        0.801157548846701    0.241914070569483    0.363525770689988  0.0000
  O3     O3        0.725057069400797    0.906501937307123    0.318297014363942  0.0000
  O3     O3        0.156626721673596    0.794596398814865    0.677973887528050  0.0000
  O2     O2        0.996004884861695    0.990142766913465    0.479767515913127  0.0000
  O3     O3        0.924109616687318    0.065676467573657    0.218731051206635  0.0000
  O2     O2        0.964336473108363    0.021688475019323    0.721175108544045  0.0000
  O3     O3        0.993925318967592    0.010439814265649    0.976711771401297  0.0000
