data_c00007.vasp
_audit_creation_method             Generated by GULP
_audit_author_name                 Salvador R. G. Balestra
_symmetry_space_group_name_H-M     'P 1             '
_symmetry_Int_Tables_number        1

loop_
_symmetry_equiv_pos_site_id
_symmetry_equiv_pos_as_xyz
_cell_length_a                        8.9730
_cell_length_b                        7.6534
_cell_length_c                       10.2515
_cell_angle_alpha                   88.1978
_cell_angle_beta                   106.3765
_cell_angle_gamma                   91.5831

loop_
_atom_site_label
_atom_site_type_symbol
_atom_site_fract_x
_atom_site_fract_y
_atom_site_fract_z
_atom_site_charge
  Ge     Ge        0.313819999999964    0.296860000000038    0.309830000000034  0.0000
  Ge     Ge        0.692901760655459    0.331320609337499    0.710033489688653  0.0000
  Ge     Ge        0.651870375085496    0.746483565292061    0.701353849133946  0.0000
  Ge     Ge        0.088695228990852    0.979051114293995    0.634888723644888  0.0000
  Si     Si        0.286657348777316    0.698166967443389    0.305962403148409  0.0000
  Si     Si        0.330085135814753    0.271123168168167    0.622010239951511  0.0000
  Si     Si        0.682748338960136    0.343839559460639    0.398469311685353  0.0000
  Si     Si        0.646524430461179    0.746260175632671    0.388963706936708  0.0000
  Si     Si        0.293688910065852    0.673672851437940    0.613217182735396  0.0000
  Si     Si        0.866694885249339    0.041043326247957    0.333171368164574  0.0000
  Si     Si        0.083510547468478    0.006859547620704    0.149885950089729  0.0000
  Si     Si        0.889392180234874    0.022003095697907    0.848202619529486  0.0000
  O3     O3        0.266800198961176    0.253038342069256    0.459191083934890  0.0000
  O3     O3        0.746272498325889    0.326295364503960    0.560337709275484  0.0000
  O3     O3        0.701718825598466    0.773221249688383    0.549760252452934  0.0000
  O2     O2        0.246719800048841    0.680402739908307    0.449016874183492  0.0000
  O3     O3        0.273529073331654    0.507572723132242    0.245866844863487  0.0000
  O1     O1        0.695759646456173    0.538031161973531    0.763467716168292  0.0000
  O3     O3        0.510280479395065    0.265978092681331    0.344218539553304  0.0000
  O3     O3        0.511328964390824    0.229847938898686    0.674599937549277  0.0000
  O3     O3        0.455659913299751    0.777290196014268    0.668283079923759  0.0000
  O2     O2        0.462011964113612    0.776080140950014    0.330955176091875  0.0000
  O3     O3        0.208726462002164    0.162142574627705    0.185402564116980  0.0000
  O3     O3        0.827234850457088    0.216977869554044    0.834630476294350  0.0000
  O3     O3        0.743936050137753    0.888332260766771    0.826231814240036  0.0000
  O2     O2        0.165609950825204    0.825422552914062    0.206644243200205  0.0000
  O2     O2        0.313016755241145    0.471739827732581    0.663207503595818  0.0000
  O2     O2        0.685900940251006    0.549808598366145    0.355621019414739  0.0000
  O3     O3        0.230336656075611    0.140635834039537    0.689515255023105  0.0000
  O2     O2        0.794260381346443    0.232094386021469    0.334740302490145  0.0000
  O2     O2        0.735219412502229    0.888153753974741    0.317535051340387  0.0000
  O3     O3        0.166991434628369    0.771208516975967    0.663113018155516  0.0000
  O3     O3        0.008917289204956    0.008090659120337    0.463274947217071  0.0000
  O2     O2        0.934283550152720    0.040282201406602    0.203259368754357  0.0000
  O3     O3        0.953607891256375    0.981167395787253    0.721087943259890  0.0000
  O2     O2        0.022786249615097    0.991745128618017    0.987416792694292  0.0000
