data_c00025.vasp
_audit_creation_method             Generated by GULP
_audit_author_name                 Salvador R. G. Balestra
_symmetry_space_group_name_H-M     'P 1             '
_symmetry_Int_Tables_number        1

loop_
_symmetry_equiv_pos_site_id
_symmetry_equiv_pos_as_xyz
_cell_length_a                        9.0412
_cell_length_b                        7.6897
_cell_length_c                       10.1354
_cell_angle_alpha                   90.3075
_cell_angle_beta                   105.2491
_cell_angle_gamma                   88.3507

loop_
_atom_site_label
_atom_site_type_symbol
_atom_site_fract_x
_atom_site_fract_y
_atom_site_fract_z
_atom_site_charge
  Ge     Ge        0.313819999999964    0.296860000000038    0.309830000000034  0.0000
  Ge     Ge        0.668295572645109    0.241932666053900    0.717859598400819  0.0000
  Ge     Ge        0.111241997748380    0.982401469590944    0.162891515130906  0.0000
  Ge     Ge        0.909837304665492    0.944441133764919    0.849320405220348  0.0000
  Si     Si        0.695025621913968    0.646558966827742    0.725744157370822  0.0000
  Si     Si        0.348299648205831    0.695133770407154    0.327890443325613  0.0000
  Si     Si        0.314072528545466    0.288752305163524    0.629630141637805  0.0000
  Si     Si        0.670016595083181    0.244031485260257    0.403101767524023  0.0000
  Si     Si        0.700582471819309    0.644542254509472    0.420718179887214  0.0000
  Si     Si        0.340762962643991    0.684001875668921    0.636528448413117  0.0000
  Si     Si        0.890233837263637    0.944656041705730    0.349910493538424  0.0000
  Si     Si        0.111668037927154    0.982795064534642    0.636689557870746  0.0000
  O3     O3        0.311910929222698    0.248058591561271    0.474564312576337  0.0000
  O3     O3        0.672209315189839    0.181879275837145    0.554094382004288  0.0000
  O2     O2        0.716950499588713    0.699681566263853    0.577217872989958  0.0000
  O2     O2        0.331973929005082    0.727691607636110    0.480484154035275  0.0000
  O3     O3        0.272152105955754    0.515085404861935    0.272708253039408  0.0000
  O3     O3        0.738139904358004    0.447231129446308    0.754580926419469  0.0000
  O3     O3        0.500568677459243    0.247728282344538    0.303529087765251  0.0000
  O3     O3        0.479959389133557    0.242397745887269    0.726348574052571  0.0000
  O2     O2        0.517222465296250    0.687489276852675    0.725205859473079  0.0000
  O2     O2        0.527704922755956    0.682329056945306    0.331205996518162  0.0000
  O1     O1        0.174742755451557    0.189789395836380    0.195705564630225  0.0000
  O1     O1        0.777079845387028    0.110422571428173    0.841053163034319  0.0000
  O3     O3        0.808356045012462    0.755643639883510    0.839772080902950  0.0000
  O3     O3        0.271148743346659    0.853592886782947    0.234097466968615  0.0000
  O2     O2        0.273254447405533    0.493525858442688    0.647319143816947  0.0000
  O2     O2        0.739954571886100    0.438873848020016    0.411469389736564  0.0000
  O2     O2        0.188921080998163    0.170556636003996    0.671681918457439  0.0000
  O2     O2        0.774726628678302    0.109359890994258    0.342616970827756  0.0000
  O2     O2        0.813440960569600    0.760309401672821    0.361550720625074  0.0000
  O2     O2        0.239820299202964    0.828680276188692    0.691777411462624  0.0000
  O2     O2        0.043656561016991    0.965492111299114    0.472942758433532  0.0000
  O3     O3        0.947691182604684    0.940732717900609    0.214044119022640  0.0000
  O3     O3        0.975510367814877    0.970869943341949    0.705370836986933  0.0000
  O1     O1        0.059699847153149    0.947568512058452    0.990132523306917  0.0000
