data_c00011.vasp
_audit_creation_method             Generated by GULP
_audit_author_name                 Salvador R. G. Balestra
_symmetry_space_group_name_H-M     'P 1             '
_symmetry_Int_Tables_number        1

loop_
_symmetry_equiv_pos_site_id
_symmetry_equiv_pos_as_xyz
_cell_length_a                        9.1240
_cell_length_b                        7.6970
_cell_length_c                       10.2030
_cell_angle_alpha                   88.0344
_cell_angle_beta                   108.3938
_cell_angle_gamma                   90.3924

loop_
_atom_site_label
_atom_site_type_symbol
_atom_site_fract_x
_atom_site_fract_y
_atom_site_fract_z
_atom_site_charge
  Ge     Ge        0.313819999999964    0.296860000000038    0.309830000000034  0.0000
  Ge     Ge        0.717149487180933    0.316292789185313    0.713217063127447  0.0000
  Ge     Ge        0.341484793423996    0.275171210950143    0.629475964771801  0.0000
  Ge     Ge        0.658530228840012    0.739368779988532    0.386304040482480  0.0000
  Si     Si        0.680037824942026    0.722621042203745    0.709363761395124  0.0000
  Si     Si        0.307871399253427    0.689876608030739    0.308927440738465  0.0000
  Si     Si        0.682165771261853    0.334110414403202    0.397176857136979  0.0000
  Si     Si        0.332586800548547    0.669453332897636    0.625326959591511  0.0000
  Si     Si        0.879912405720750    0.039810637216013    0.347423662999022  0.0000
  Si     Si        0.119018195529213    0.978743310031747    0.648766071289614  0.0000
  Si     Si        0.094641113242643    0.001909454952747    0.168044466297406  0.0000
  Si     Si        0.921967788765421    0.994267928589489    0.850936729573230  0.0000
  O1     O1        0.261969290489078    0.252716712941880    0.454481316294626  0.0000
  O3     O3        0.761913817812510    0.323901952358239    0.561405866164702  0.0000
  O3     O3        0.705882936047301    0.759584096380999    0.562034454233387  0.0000
  O2     O2        0.328904030254985    0.628830941517063    0.468647103118248  0.0000
  O3     O3        0.277858687714212    0.506360016711584    0.236372529917269  0.0000
  O3     O3        0.726426370103109    0.528308166288732    0.766824141547846  0.0000
  O3     O3        0.510241293319083    0.260372952657822    0.362840709862656  0.0000
  O1     O1        0.536220655614202    0.234794492861192    0.688144393573562  0.0000
  O2     O2        0.500278145819926    0.753273863205876    0.698260390314274  0.0000
  O3     O3        0.463962443922151    0.783919299978304    0.306396367511666  0.0000
  O3     O3        0.218445096411981    0.153407927119107    0.184985243906284  0.0000
  O3     O3        0.858607183086699    0.189642966863758    0.828336694374641  0.0000
  O2     O2        0.776505127025318    0.864120220615254    0.813777838862988  0.0000
  O2     O2        0.168354607603121    0.824127755731327    0.249539492297924  0.0000
  O3     O3        0.313604992084838    0.480482350605229    0.685931077087106  0.0000
  O3     O3        0.683830575112893    0.529979018948210    0.341875246806871  0.0000
  O3     O3        0.244554740309024    0.126074204203811    0.702281475817543  0.0000
  O2     O2        0.776242890674232    0.212438783415671    0.326671901796796  0.0000
  O3     O3        0.771051075522180    0.872369545687900    0.321056351834557  0.0000
  O2     O2        0.199926250269796    0.798091587876758    0.633095553445840  0.0000
  O2     O2        0.999998746296952    0.030185568054398    0.500480725394107  0.0000
  O2     O2        0.963052431963154    0.060846765352281    0.231312164435822  0.0000
  O2     O2        0.029066328170580    0.947375795065799    0.758820467258531  0.0000
  O2     O2        0.022085497807554    0.959439205767214    0.008823094078941  0.0000
