data_c00086.vasp
_audit_creation_method             Generated by GULP
_audit_author_name                 Salvador R. G. Balestra
_symmetry_space_group_name_H-M     'P 1             '
_symmetry_Int_Tables_number        1

loop_
_symmetry_equiv_pos_site_id
_symmetry_equiv_pos_as_xyz
_cell_length_a                        9.0222
_cell_length_b                        7.7116
_cell_length_c                       10.5512
_cell_angle_alpha                   86.8416
_cell_angle_beta                   109.4533
_cell_angle_gamma                   91.4317

loop_
_atom_site_label
_atom_site_type_symbol
_atom_site_fract_x
_atom_site_fract_y
_atom_site_fract_z
_atom_site_charge
  Ge     Ge        0.313819999999964    0.296860000000038    0.309830000000034  0.0000
  Ge     Ge        0.693136261296499    0.313351781307305    0.399271324869424  0.0000
  Ge     Ge        0.335643751698840    0.656256129819947    0.639424202881075  0.0000
  Ge     Ge        0.890751275827536    0.997037113748327    0.365336579983097  0.0000
  Si     Si        0.706682372124984    0.269662451378270    0.704821872347825  0.0000
  Si     Si        0.706491573091423    0.667385775278371    0.720036528122873  0.0000
  Si     Si        0.305862379448576    0.689598319801349    0.335270415029790  0.0000
  Si     Si        0.341458198429661    0.253634701463713    0.618501906502330  0.0000
  Si     Si        0.673881052403632    0.704744403814924    0.418484095533970  0.0000
  Si     Si        0.133171630608357    0.950014142676564    0.672682676660878  0.0000
  Si     Si        0.098735994840172    0.990204813266531    0.170085109400509  0.0000
  Si     Si        0.922977086660050    0.965692676664061    0.857470212392655  0.0000
  O3     O3        0.311222085771009    0.212531155754426    0.464991406951845  0.0000
  O3     O3        0.715961323621205    0.230151481050925    0.561077544766799  0.0000
  O2     O2        0.709718244247330    0.743721017203455    0.575318673558051  0.0000
  O3     O3        0.291007443322940    0.739873515382302    0.475490360568842  0.0000
  O3     O3        0.233616588438752    0.503270117182299    0.288533354377586  0.0000
  O2     O2        0.764249613143221    0.466919501305162    0.742979146077504  0.0000
  O1     O1        0.499340872054748    0.284691231917941    0.302133172789390  0.0000
  O2     O2        0.527216609536685    0.250404871529545    0.700861382425720  0.0000
  O3     O3        0.533396563851655    0.676766854051359    0.727905333221097  0.0000
  O2     O2        0.489308617138303    0.659409354544197    0.355329144833172  0.0000
  O3     O3        0.179493478325383    0.177241171245972    0.190341502003910  0.0000
  O2     O2        0.810139032255186    0.132782070567648    0.817534410618089  0.0000
  O2     O2        0.824544866201879    0.785939749871139    0.830788455167026  0.0000
  O2     O2        0.234734940461072    0.845215894339767    0.226848421715437  0.0000
  O3     O3        0.277794858320372    0.441517627449604    0.631014651777008  0.0000
  O3     O3        0.755537326002790    0.527448347318120    0.405144647994496  0.0000
  O2     O2        0.254889584066425    0.109286377370207    0.683519611609928  0.0000
  O1     O1        0.822076842808478    0.204153960536228    0.345749430512535  0.0000
  O3     O3        0.724932154112616    0.864683995510310    0.342491797258075  0.0000
  O3     O3        0.230208249096978    0.772334053637654    0.714096227322564  0.0000
  O3     O3        0.014744957231779    0.938072412760675    0.522781862685027  0.0000
  O3     O3        0.970671758195902    0.960501945275809    0.243800246860975  0.0000
  O2     O2        0.045543689144983    0.981204869244592    0.777746925224770  0.0000
  O2     O2        0.015941098920683    0.963755153293475    0.013890032407285  0.0000
