data_c00039.vasp
_audit_creation_method             Generated by GULP
_audit_author_name                 Salvador R. G. Balestra
_symmetry_space_group_name_H-M     'P 1             '
_symmetry_Int_Tables_number        1

loop_
_symmetry_equiv_pos_site_id
_symmetry_equiv_pos_as_xyz
_cell_length_a                        9.2234
_cell_length_b                        7.6582
_cell_length_c                       10.1789
_cell_angle_alpha                   86.5593
_cell_angle_beta                   111.7872
_cell_angle_gamma                   87.9450

loop_
_atom_site_label
_atom_site_type_symbol
_atom_site_fract_x
_atom_site_fract_y
_atom_site_fract_z
_atom_site_charge
  Ge     Ge        0.313819999999964    0.296860000000038    0.309830000000034  0.0000
  Ge     Ge        0.760013352827797    0.591472479484496    0.736656367229683  0.0000
  Ge     Ge        0.899297221264401    0.941837355958668    0.343930004533139  0.0000
  Ge     Ge        0.118554452529199    0.982424727652664    0.169902650954496  0.0000
  Si     Si        0.732224604723503    0.181264357890171    0.710067479495388  0.0000
  Si     Si        0.370207237305451    0.681394773772141    0.346593026761034  0.0000
  Si     Si        0.372112334483524    0.228721926134486    0.639791477729614  0.0000
  Si     Si        0.681652097329464    0.234805829200994    0.393247844276389  0.0000
  Si     Si        0.715546797441668    0.636421016051571    0.413285550854267  0.0000
  Si     Si        0.410783981429383    0.612140031283602    0.669137992022791  0.0000
  Si     Si        0.173250231530982    0.925806592069353    0.653454595463294  0.0000
  Si     Si        0.984016145061357    0.879796353585764    0.857433945151617  0.0000
  O3     O3        0.301568465711882    0.232518914027538    0.470810039418296  0.0000
  O2     O2        0.731354702982843    0.149029474787650    0.554506599058557  0.0000
  O3     O3        0.759791279655716    0.677183594991937    0.575808915665760  0.0000
  O2     O2        0.421975568439670    0.616712060268789    0.513653154163339  0.0000
  O3     O3        0.277392493827411    0.521189509260290    0.266435807585483  0.0000
  O3     O3        0.796828136706376    0.366964344152371    0.758716982698706  0.0000
  O3     O3        0.497440417029742    0.240423974980151    0.311260909993032  0.0000
  O2     O2        0.555920600836180    0.167925442381341    0.703422774087830  0.0000
  O3     O3        0.588954270255000    0.634355982467101    0.767794063986134  0.0000
  O2     O2        0.533435543708933    0.698773317212957    0.322570636086533  0.0000
  O1     O1        0.173672722219124    0.193642038986455    0.183815341351647  0.0000
  O2     O2        0.840936543122268    0.028105534227898    0.820603582846661  0.0000
  O3     O3        0.912014031272869    0.692935191646872    0.856703634939504  0.0000
  O3     O3        0.271886993002515    0.861884109599814    0.305229959199852  0.0000
  O2     O2        0.352850872395080    0.419695059600133    0.694695801670551  0.0000
  O2     O2        0.743125346663057    0.430074790098059    0.401787499565529  0.0000
  O2     O2        0.278403290342466    0.092622734578222    0.700615355652046  0.0000
  O3     O3        0.765957046982106    0.116247302098913    0.317170180944655  0.0000
  O3     O3        0.822964979367697    0.741167476248480    0.349650599441119  0.0000
  O2     O2        0.288405235641096    0.752052348779026    0.685466602798623  0.0000
  O3     O3        0.069640000919142    0.955160458691416    0.488886871164095  0.0000
  O1     O1        0.950138666927734    0.955891875006633    0.198427980083545  0.0000
  O2     O2        0.066126966251446    0.903129709961641    0.744153333309709  0.0000
  O3     O3        0.108249098521557    0.905922638201733    0.011171334867248  0.0000
