data_c00006.vasp
_audit_creation_method             Generated by GULP
_audit_author_name                 Salvador R. G. Balestra
_symmetry_space_group_name_H-M     'P 1             '
_symmetry_Int_Tables_number        1

loop_
_symmetry_equiv_pos_site_id
_symmetry_equiv_pos_as_xyz
_cell_length_a                        9.0984
_cell_length_b                        7.6432
_cell_length_c                       10.2098
_cell_angle_alpha                   89.4574
_cell_angle_beta                   108.6444
_cell_angle_gamma                   87.9558

loop_
_atom_site_label
_atom_site_type_symbol
_atom_site_fract_x
_atom_site_fract_y
_atom_site_fract_z
_atom_site_charge
  Ge     Ge        0.313819999999964    0.296860000000038    0.309830000000034  0.0000
  Ge     Ge        0.706535888325606    0.209875348953592    0.708987531457317  0.0000
  Ge     Ge        0.744282605707082    0.625823560531517    0.727279734770547  0.0000
  Ge     Ge        0.901428873612152    0.941343507506644    0.347743272315138  0.0000
  Si     Si        0.357022146567344    0.695041978520809    0.335088741155075  0.0000
  Si     Si        0.346805397786238    0.276583626238825    0.635334589026001  0.0000
  Si     Si        0.673346819493717    0.236397962930635    0.393210640266204  0.0000
  Si     Si        0.708541553998265    0.642274386892997    0.412533257472932  0.0000
  Si     Si        0.383240103941622    0.670406212228246    0.653422034319708  0.0000
  Si     Si        0.149068661011309    0.971010020142048    0.653380955921449  0.0000
  Si     Si        0.118630731603612    0.986983038146412    0.166940153208049  0.0000
  Si     Si        0.955157038056992    0.921303248612785    0.857858151302345  0.0000
  O3     O3        0.320887126388641    0.243682395069218    0.475177470730073  0.0000
  O3     O3        0.692928723061880    0.150533537802191    0.542502635649059  0.0000
  O3     O3        0.743283831325476    0.707126653187702    0.567873475994904  0.0000
  O2     O2        0.375535487543819    0.709641704467593    0.496331070906213  0.0000
  O3     O3        0.271350783402537    0.519486185405020    0.276632525853702  0.0000
  O1     O1        0.789138515022175    0.407897051724475    0.748076833119640  0.0000
  O3     O3        0.495713543083022    0.248462476702400    0.297144604173151  0.0000
  O3     O3        0.522265034366830    0.226070440197710    0.722739262805009  0.0000
  O3     O3        0.562186064558511    0.669402736623136    0.744871246392797  0.0000
  O2     O2        0.529222611099100    0.687572767396398    0.322118624838470  0.0000
  O3     O3        0.167880304978635    0.185992224399914    0.195541570885334  0.0000
  O3     O3        0.806342638733735    0.053205068296455    0.827956884432355  0.0000
  O3     O3        0.891618018631439    0.728617722433740    0.848611094803981  0.0000
  O2     O2        0.268101963349006    0.867421652549176    0.254700333816577  0.0000
  O2     O2        0.311836465933061    0.480728381286884    0.660998498148501  0.0000
  O2     O2        0.738935123334559    0.432435655506107    0.419429673621393  0.0000
  O2     O2        0.228717860527652    0.158413475753458    0.682843577910794  0.0000
  O3     O3        0.772845059735675    0.118534018244052    0.322200630300941  0.0000
  O3     O3        0.816558911694272    0.742126308879364    0.343631040461190  0.0000
  O2     O2        0.280579227927726    0.814225941990105    0.703038378519409  0.0000
  O3     O3        0.060419877898679    0.955273677862271    0.492314992875021  0.0000
  O3     O3        0.968832565999334    0.944783250189603    0.207933372546960  0.0000
  O2     O2        0.029777595525349    0.962998018202128    0.738089433003467  0.0000
  O2     O2        0.082569673562275    0.950052319346382    0.005129501049000  0.0000
