data_c00033.vasp
_audit_creation_method             Generated by GULP
_audit_author_name                 Salvador R. G. Balestra
_symmetry_space_group_name_H-M     'P 1             '
_symmetry_Int_Tables_number        1

loop_
_symmetry_equiv_pos_site_id
_symmetry_equiv_pos_as_xyz
_cell_length_a                        8.8831
_cell_length_b                        7.7996
_cell_length_c                       10.4128
_cell_angle_alpha                   85.0012
_cell_angle_beta                   108.7646
_cell_angle_gamma                   91.2019

loop_
_atom_site_label
_atom_site_type_symbol
_atom_site_fract_x
_atom_site_fract_y
_atom_site_fract_z
_atom_site_charge
  Ge     Ge        0.313819999999964    0.296860000000038    0.309830000000034  0.0000
  Ge     Ge        0.724056940240451    0.635574018516231    0.732512603738556  0.0000
  Ge     Ge        0.702228474592131    0.293672006054814    0.400636525765476  0.0000
  Ge     Ge        0.335645349325422    0.638758314160569    0.641706779136334  0.0000
  Si     Si        0.715143077707869    0.244463471069786    0.704754300720120  0.0000
  Si     Si        0.322734293910146    0.687974235675315    0.337590154040360  0.0000
  Si     Si        0.337078775440762    0.247522603676302    0.616535875307171  0.0000
  Si     Si        0.700796353146206    0.684912823603672    0.425807140418386  0.0000
  Si     Si        0.900477325225784    0.990297341385673    0.368461881203394  0.0000
  Si     Si        0.137401647458929    0.942137999582073    0.673879860260741  0.0000
  Si     Si        0.110243365409173    0.993502172318575    0.175968749088341  0.0000
  Si     Si        0.927631992006291    0.938935176178285    0.866371232466380  0.0000
  O3     O3        0.258568731906502    0.252087358218205    0.454357658110248  0.0000
  O3     O3        0.775747068933285    0.249976363349170    0.575621853549646  0.0000
  O3     O3        0.779309846288375    0.680343507931059    0.587985657423695  0.0000
  O3     O3        0.262126015465119    0.682451700586495    0.466720621902811  0.0000
  O3     O3        0.282099609070173    0.515037272615691    0.261670673179331  0.0000
  O3     O3        0.755787298648396    0.417398768541011    0.780674114593811  0.0000
  O1     O1        0.506256508438739    0.244571252758739    0.329772697287266  0.0000
  O2     O2        0.524635775051975    0.232751910272423    0.639069229217146  0.0000
  O1     O1        0.531618872821459    0.687851495584424    0.712570903608818  0.0000
  O2     O2        0.513240709308490    0.699705999087929    0.403277598535894  0.0000
  O3     O3        0.185626076468658    0.180671332957651    0.186921174878370  0.0000
  O2     O2        0.784310360120088    0.078200678295013    0.807411983912791  0.0000
  O3     O3        0.852246772553624    0.751767843765955    0.855419895805899  0.0000
  O2     O2        0.253563213537068    0.854236024211334    0.234930298902457  0.0000
  O3     O3        0.305478602883920    0.421231711297923    0.674893034750781  0.0000
  O3     O3        0.732385095489873    0.511200295830791    0.367447752430799  0.0000
  O2     O2        0.276330737497267    0.084533890559976    0.690654553223062  0.0000
  O3     O3        0.818029912166530    0.175928301286377    0.335005215609510  0.0000
  O2     O2        0.761551011254841    0.847897559332907    0.351687754815981  0.0000
  O3     O3        0.219847581703661    0.756507989925434    0.707337871508803  0.0000
  O2     O2        0.018942703914438    0.966217855913955    0.521170023889685  0.0000
  O2     O2        0.987711284981472    0.962260910504540    0.259956579817720  0.0000
  O2     O2        0.050161889823047    0.970177381390471    0.782380883944269  0.0000
  O2     O2        0.018940238701940    0.966219923976857    0.021169068651224  0.0000
