data_c00093.vasp
_audit_creation_method             Generated by GULP
_audit_author_name                 Salvador R. G. Balestra
_symmetry_space_group_name_H-M     'P 1             '
_symmetry_Int_Tables_number        1

loop_
_symmetry_equiv_pos_site_id
_symmetry_equiv_pos_as_xyz
_cell_length_a                        9.0802
_cell_length_b                        7.7399
_cell_length_c                       10.2610
_cell_angle_alpha                   88.7113
_cell_angle_beta                   107.6474
_cell_angle_gamma                   89.6129

loop_
_atom_site_label
_atom_site_type_symbol
_atom_site_fract_x
_atom_site_fract_y
_atom_site_fract_z
_atom_site_charge
  Ge     Ge        0.313819999999964    0.296860000000038    0.309830000000034  0.0000
  Ge     Ge        0.685837738177300    0.281709328594738    0.388968147994882  0.0000
  Ge     Ge        0.136357888622601    0.971935614187270    0.686703006038583  0.0000
  Ge     Ge        0.102075418296445    0.985693625686112    0.180902515402753  0.0000
  Si     Si        0.697245418389272    0.259532738095325    0.706937156000986  0.0000
  Si     Si        0.709032557675688    0.656023383549375    0.716540084345183  0.0000
  Si     Si        0.331812419794634    0.694972326713078    0.326741501040554  0.0000
  Si     Si        0.341808477092398    0.272914807812572    0.624909675885961  0.0000
  Si     Si        0.693911624931203    0.672633867711091    0.408450566185088  0.0000
  Si     Si        0.352283351343911    0.677083570406136    0.631535415195316  0.0000
  Si     Si        0.899401326347016    0.974759871492858    0.384817469670034  0.0000
  Si     Si        0.914244938748218    0.955358745007937    0.869183718656724  0.0000
  O3     O3        0.309823616397917    0.218541341322740    0.469010591490840  0.0000
  O3     O3        0.703038544889832    0.224517851982865    0.556683710800297  0.0000
  O2     O2        0.727564850795298    0.702793952208499    0.569497387840670  0.0000
  O2     O2        0.322120471085154    0.749763687208298    0.476166612464897  0.0000
  O3     O3        0.254946983378918    0.510442059390197    0.288495915198869  0.0000
  O2     O2        0.753465605285045    0.454041180342985    0.752930206184550  0.0000
  O1     O1        0.496078127494783    0.265262399954947    0.296273589147679  0.0000
  O2     O2        0.521495568087670    0.237619010652812    0.709177216414256  0.0000
  O2     O2        0.533597194914496    0.692159534626392    0.715401872556397  0.0000
  O2     O2        0.510641563380828    0.669134978074664    0.334604974113196  0.0000
  O1     O1        0.180728800619378    0.185312984015921    0.187783338438777  0.0000
  O2     O2        0.806385493047696    0.122993814624750    0.811892868269375  0.0000
  O2     O2        0.824315904903835    0.776543295484362    0.824585930329828  0.0000
  O3     O3        0.254634125879352    0.837656099114989    0.213582713875286  0.0000
  O2     O2        0.302643001919881    0.476978037684787    0.627618511649588  0.0000
  O3     O3        0.756893340130238    0.487950483363812    0.383735079311787  0.0000
  O3     O3        0.237906646171534    0.161206972059289    0.693798204041709  0.0000
  O3     O3        0.807018403698506    0.152818616611015    0.331690983949721  0.0000
  O2     O2        0.771428155141028    0.824117620867678    0.345377856959514  0.0000
  O3     O3        0.253508973710614    0.790920609969125    0.701568921910623  0.0000
  O3     O3        0.975029207559670    0.973860744672193    0.547767914986895  0.0000
  O3     O3        0.029326446990935    0.943813819471979    0.315203469128341  0.0000
  O3     O3        0.070498121478058    0.964193387831665    0.828184777741429  0.0000
  O3     O3        0.958618872680301    0.955609240264298    0.031869806362940  0.0000
