data_c00070.vasp
_audit_creation_method             Generated by GULP
_audit_author_name                 Salvador R. G. Balestra
_symmetry_space_group_name_H-M     'P 1             '
_symmetry_Int_Tables_number        1

loop_
_symmetry_equiv_pos_site_id
_symmetry_equiv_pos_as_xyz
_cell_length_a                        9.0856
_cell_length_b                        7.7444
_cell_length_c                       10.0569
_cell_angle_alpha                   85.1216
_cell_angle_beta                   108.7750
_cell_angle_gamma                   90.4772

loop_
_atom_site_label
_atom_site_type_symbol
_atom_site_fract_x
_atom_site_fract_y
_atom_site_fract_z
_atom_site_charge
  Ge     Ge        0.313819999999964    0.296860000000038    0.309830000000034  0.0000
  Ge     Ge        0.343640086712855    0.247122935431633    0.641404846763291  0.0000
  Ge     Ge        0.653866237249862    0.735755309855174    0.402808304999818  0.0000
  Ge     Ge        0.899600801213706    0.976217972532977    0.866394348740603  0.0000
  Si     Si        0.690018086655702    0.301542911584131    0.708668316209128  0.0000
  Si     Si        0.679503988165856    0.684151180077049    0.728293704238970  0.0000
  Si     Si        0.287821439188316    0.705503478004690    0.318032143136318  0.0000
  Si     Si        0.661875046129777    0.345375976762262    0.388693504107419  0.0000
  Si     Si        0.318175522414325    0.652295236305320    0.637173632647966  0.0000
  Si     Si        0.883314876519630    0.033499216370747    0.398136049665541  0.0000
  Si     Si        0.129176430906125    0.945157296688817    0.700742394034601  0.0000
  Si     Si        0.071421462095109    0.024191860803800    0.184856956246607  0.0000
  O1     O1        0.310695957408085    0.205335922870736    0.470333653283562  0.0000
  O2     O2        0.624451153256024    0.347074225339568    0.537913629368492  0.0000
  O3     O3        0.698810686030306    0.758784781389913    0.580554053740964  0.0000
  O2     O2        0.283181764706299    0.722736329832022    0.475033165420405  0.0000
  O3     O3        0.251584621902989    0.511277754236643    0.278383055052593  0.0000
  O2     O2        0.746209831640416    0.485934551982395    0.771895247932922  0.0000
  O3     O3        0.496448086877235    0.291123379819747    0.287154471468071  0.0000
  O3     O3        0.538920875813284    0.229247498498611    0.742828598151840  0.0000
  O2     O2        0.499427004008899    0.680998872352486    0.718844468785218  0.0000
  O3     O3        0.457286997449390    0.761645589296013    0.315571559458075  0.0000
  O3     O3        0.193347787288343    0.174347598780665    0.185045676566278  0.0000
  O3     O3        0.826785296611059    0.162828995839772    0.757404001565889  0.0000
  O3     O3        0.771100792314021    0.807838264417724    0.844194351862583  0.0000
  O2     O2        0.157587243108131    0.836084858642049    0.212480281787494  0.0000
  O3     O3        0.275883412833786    0.453650048204599    0.648715995812660  0.0000
  O3     O3        0.709392807344024    0.540247408661232    0.359013278157114  0.0000
  O3     O3        0.245439973171770    0.102873825271576    0.719076532327590  0.0000
  O2     O2        0.801652147962038    0.218893375497906    0.394151460475876  0.0000
  O3     O3        0.753459794881225    0.894618877269160    0.339006356110572  0.0000
  O2     O2        0.216806460068365    0.764923887234615    0.702816621685233  0.0000
  O2     O2        0.981789099315609    0.975114746787752    0.558794739425335  0.0000
  O2     O2        0.995346195017365    0.059656080621497    0.304532060442156  0.0000
  O3     O3        0.065685571951565    0.921888015048418    0.831641195286695  0.0000
  O3     O3        0.938012772191552    0.028821072724502    0.036432937293402  0.0000
