data_c00074.vasp
_audit_creation_method             Generated by GULP
_audit_author_name                 Salvador R. G. Balestra
_symmetry_space_group_name_H-M     'P 1             '
_symmetry_Int_Tables_number        1

loop_
_symmetry_equiv_pos_site_id
_symmetry_equiv_pos_as_xyz
_cell_length_a                        9.0667
_cell_length_b                        7.6768
_cell_length_c                       10.1745
_cell_angle_alpha                   88.2704
_cell_angle_beta                   110.8808
_cell_angle_gamma                   87.3739

loop_
_atom_site_label
_atom_site_type_symbol
_atom_site_fract_x
_atom_site_fract_y
_atom_site_fract_z
_atom_site_charge
  Ge     Ge        0.313819999999964    0.296860000000038    0.309830000000034  0.0000
  Ge     Ge        0.336445918451286    0.289493749515458    0.632734096145631  0.0000
  Ge     Ge        0.390661798267911    0.698233084830771    0.647299599050664  0.0000
  Ge     Ge        0.942847454203099    0.925045944583102    0.867119587056076  0.0000
  Si     Si        0.691489338657408    0.233802228746564    0.700012687256732  0.0000
  Si     Si        0.757088089705837    0.610944695343000    0.731712748569996  0.0000
  Si     Si        0.346107274041286    0.709943200085335    0.325849088847547  0.0000
  Si     Si        0.665535695549037    0.269650958710970    0.383798950115053  0.0000
  Si     Si        0.707021486889818    0.653775771525736    0.407755356534728  0.0000
  Si     Si        0.912635395694543    0.955741388011959    0.400165192745816  0.0000
  Si     Si        0.168122267375606    0.984181749502659    0.704701551164768  0.0000
  Si     Si        0.092783802984834    0.004062437541659    0.184677109751601  0.0000
  O1     O1        0.301299153411486    0.224605639587111    0.465445599133201  0.0000
  O2     O2        0.628538539583253    0.265226919875349    0.529272679756824  0.0000
  O2     O2        0.746277503393945    0.667998030922791    0.573837071506747  0.0000
  O3     O3        0.357606093861581    0.772595755781852    0.477223286454063  0.0000
  O3     O3        0.277698338425299    0.521410950080350    0.296351430084417  0.0000
  O2     O2        0.793526053941152    0.401226752726299    0.763676222299012  0.0000
  O3     O3        0.488860942564010    0.256214914635454    0.276410453954736  0.0000
  O3     O3        0.534075972576124    0.236035162905329    0.735858887642574  0.0000
  O3     O3        0.589145889376010    0.660911631942080    0.743664939395155  0.0000
  O2     O2        0.523072412710325    0.708182374024999    0.320759599515284  0.0000
  O3     O3        0.166339539447990    0.189310700244086    0.187024490774476  0.0000
  O3     O3        0.791498011990539    0.054368758494052    0.745932084122722  0.0000
  O3     O3        0.893093929976714    0.710523208364470    0.842443283603430  0.0000
  O2     O2        0.232987447318290    0.852691424846987    0.210147644441731  0.0000
  O1     O1        0.298113002928119    0.507890776200573    0.641249436380027  0.0000
  O2     O2        0.740189376851946    0.455127828026278    0.370121610836510  0.0000
  O3     O3        0.209691498842047    0.182677748890212    0.695639465784800  0.0000
  O2     O2        0.789017682616731    0.120866937167317    0.375541965221136  0.0000
  O2     O2        0.817161018321866    0.780551159851813    0.360090514128950  0.0000
  O3     O3        0.322997573464769    0.860760170960070    0.726827388368726  0.0000
  O2     O2        0.026977015845534    0.933930528788449    0.562101521776512  0.0000
  O2     O2        0.011301577549558    0.980897970763802    0.300405171728454  0.0000
  O3     O3        0.114504236397550    0.952950121655703    0.836146067344439  0.0000
  O3     O3        0.961299321261873    0.982348752088842    0.033242186935647  0.0000
