data_c00076.vasp
_audit_creation_method             Generated by GULP
_audit_author_name                 Salvador R. G. Balestra
_symmetry_space_group_name_H-M     'P 1             '
_symmetry_Int_Tables_number        1

loop_
_symmetry_equiv_pos_site_id
_symmetry_equiv_pos_as_xyz
_cell_length_a                        9.2302
_cell_length_b                        7.6411
_cell_length_c                       10.1664
_cell_angle_alpha                   87.6846
_cell_angle_beta                   111.2537
_cell_angle_gamma                   87.4474

loop_
_atom_site_label
_atom_site_type_symbol
_atom_site_fract_x
_atom_site_fract_y
_atom_site_fract_z
_atom_site_charge
  Ge     Ge        0.313819999999964    0.296860000000038    0.309830000000034  0.0000
  Ge     Ge        0.372434455173873    0.252102199539032    0.648118841088088  0.0000
  Ge     Ge        0.904745174871917    0.936590485801266    0.349534753557625  0.0000
  Ge     Ge        0.120246075215406    0.980227868334801    0.170283283853084  0.0000
  Si     Si        0.737315993035413    0.198914414293843    0.719076166632331  0.0000
  Si     Si        0.763987621855407    0.603153704666846    0.733637303348802  0.0000
  Si     Si        0.372289448112940    0.679947340462427    0.341110139121557  0.0000
  Si     Si        0.681395236052540    0.230775321674424    0.397491393248313  0.0000
  Si     Si        0.720484735510511    0.630071685816368    0.414553477879693  0.0000
  Si     Si        0.417177295520366    0.638507055680332    0.663910611239434  0.0000
  Si     Si        0.174817766514845    0.947048497924826    0.656167923266804  0.0000
  Si     Si        0.984464092090455    0.888693567963847    0.855323188833710  0.0000
  O1     O1        0.298332928690010    0.241298459872799    0.468874413523434  0.0000
  O2     O2        0.730392445661453    0.162473525032433    0.561660839885012  0.0000
  O2     O2        0.762391417734511    0.664206071070958    0.579642354903379  0.0000
  O2     O2        0.402383078985091    0.607286758090801    0.502583456787033  0.0000
  O3     O3        0.284977236207097    0.519297234147702    0.256218098445772  0.0000
  O2     O2        0.796056477485364    0.393277253622251    0.762235725658727  0.0000
  O3     O3        0.498923083721410    0.232043268002037    0.317499424938521  0.0000
  O3     O3        0.567902887610252    0.180736185708873    0.722342095113592  0.0000
  O2     O2        0.600617517369349    0.661000817055065    0.750248453914872  0.0000
  O2     O2        0.541112617761036    0.699626401703820    0.328187326740365  0.0000
  O1     O1        0.173995943473467    0.191287004481691    0.183912800670734  0.0000
  O2     O2        0.861969656212801    0.057811908467977    0.827703624450472  0.0000
  O2     O2        0.897369629238314    0.707507561953353    0.845299573710021  0.0000
  O3     O3        0.277270653718515    0.862326312636412    0.300396983863196  0.0000
  O3     O3        0.360740672193834    0.459324693167381    0.709234097314547  0.0000
  O2     O2        0.742795737543535    0.424974725432981    0.392793327631749  0.0000
  O3     O3        0.255771853947209    0.124790423147854    0.708163917381176  0.0000
  O3     O3        0.764078736244354    0.102154281034253    0.324297859756044  0.0000
  O3     O3        0.835243343550060    0.732603621428563    0.360128289533608  0.0000
  O2     O2        0.318586341744360    0.804291375601363    0.682636946669793  0.0000
  O3     O3        0.072312119156994    0.964291810470989    0.491426858238154  0.0000
  O1     O1        0.954984125500961    0.948650049385145    0.203404596104889  0.0000
  O2     O2        0.069725449110241    0.889784129399380    0.743326331855997  0.0000
  O3     O3        0.107212775863793    0.898387582609010    0.010607268716404  0.0000
