data_c00029.vasp
_audit_creation_method             Generated by GULP
_audit_author_name                 Salvador R. G. Balestra
_symmetry_space_group_name_H-M     'P 1             '
_symmetry_Int_Tables_number        1

loop_
_symmetry_equiv_pos_site_id
_symmetry_equiv_pos_as_xyz
_cell_length_a                        9.2385
_cell_length_b                        7.6858
_cell_length_c                       10.0830
_cell_angle_alpha                   84.7972
_cell_angle_beta                   110.2526
_cell_angle_gamma                   89.8236

loop_
_atom_site_label
_atom_site_type_symbol
_atom_site_fract_x
_atom_site_fract_y
_atom_site_fract_z
_atom_site_charge
  Ge     Ge        0.313819999999964    0.296860000000038    0.309830000000034  0.0000
  Ge     Ge        0.705094663626493    0.657018037957813    0.729778360432211  0.0000
  Ge     Ge        0.362499349030834    0.226777043057601    0.649606301167556  0.0000
  Ge     Ge        0.881589431289562    0.015836460609290    0.353495863609995  0.0000
  Si     Si        0.721880044588898    0.243093699927632    0.715517714472091  0.0000
  Si     Si        0.325720172300516    0.683464014010343    0.336345891430168  0.0000
  Si     Si        0.675942301490944    0.310709415830392    0.394423727229879  0.0000
  Si     Si        0.668364854637622    0.714860836748800    0.406496696871213  0.0000
  Si     Si        0.358611224143930    0.619519484765120    0.657921386781561  0.0000
  Si     Si        0.142476989463488    0.931436974377274    0.664746056939332  0.0000
  Si     Si        0.102058341308084    0.997940222263330    0.179763241999711  0.0000
  Si     Si        0.948409839635314    0.925437421782124    0.866622485315721  0.0000
  O1     O1        0.300094862369238    0.218542076320584    0.469383495917872  0.0000
  O2     O2        0.710424182412151    0.221581128971643    0.554367508906652  0.0000
  O3     O3        0.706482358398003    0.754724776571263    0.568554373019514  0.0000
  O2     O2        0.376266469213896    0.605712761263982    0.502802111990673  0.0000
  O3     O3        0.256478011638283    0.516927490717691    0.256482164590709  0.0000
  O3     O3        0.759751110459829    0.438814460116191    0.754245396778374  0.0000
  O3     O3        0.498427274662445    0.284898981244437    0.306527477694304  0.0000
  O3     O3        0.559627860566172    0.188900590538502    0.727126693680354  0.0000
  O3     O3        0.526794482425642    0.677557152804557    0.750947030273958  0.0000
  O2     O2        0.484944729928338    0.747723245467599    0.316943830670936  0.0000
  O3     O3        0.193271926456826    0.174394091601850    0.184873630259420  0.0000
  O2     O2        0.857886509000580    0.112880288642156    0.818931370209034  0.0000
  O3     O3        0.831908177557485    0.770658467511558    0.857503000887830  0.0000
  O2     O2        0.208322296021527    0.848653756356958    0.298947121762610  0.0000
  O3     O3        0.321117863107845    0.425092556878381    0.701567162616703  0.0000
  O2     O2        0.716022003476445    0.514270891545829    0.401085389011129  0.0000
  O3     O3        0.273222363238737    0.068618602618735    0.723074942060884  0.0000
  O3     O3        0.780328819303132    0.213029492462353    0.326635076513108  0.0000
  O3     O3        0.763864983525982    0.840204669665512    0.336827043246553  0.0000
  O2     O2        0.220759212258935    0.749144098512442    0.650949385547111  0.0000
  O3     O3        0.030889916533881    0.010735628739696    0.511761576280437  0.0000
  O3     O3        0.948077180610432    0.025295633992396    0.213563799950046  0.0000
  O2     O2        0.048977365419871    0.887659206015675    0.769728024617698  0.0000
  O2     O2        0.064741666604848    0.927111872413585    0.026831727995217  0.0000
