data_c00010.vasp
_audit_creation_method             Generated by GULP
_audit_author_name                 Salvador R. G. Balestra
_symmetry_space_group_name_H-M     'P 1             '
_symmetry_Int_Tables_number        1

loop_
_symmetry_equiv_pos_site_id
_symmetry_equiv_pos_as_xyz
_cell_length_a                        9.0739
_cell_length_b                        7.7312
_cell_length_c                       10.2491
_cell_angle_alpha                   89.8029
_cell_angle_beta                   108.2370
_cell_angle_gamma                   91.5199

loop_
_atom_site_label
_atom_site_type_symbol
_atom_site_fract_x
_atom_site_fract_y
_atom_site_fract_z
_atom_site_charge
  Ge     Ge        0.313819999999964    0.296860000000038    0.309830000000034  0.0000
  Ge     Ge        0.718919915037711    0.349153723832838    0.718655423287614  0.0000
  Ge     Ge        0.336407811938128    0.300261632573751    0.629264118659135  0.0000
  Ge     Ge        0.693031613351499    0.346539406080351    0.398022180373246  0.0000
  Si     Si        0.668726720574715    0.741119308960874    0.703771012807948  0.0000
  Si     Si        0.301359665121402    0.698999139934121    0.305009709481430  0.0000
  Si     Si        0.656717761260665    0.740532878423203    0.391710474693866  0.0000
  Si     Si        0.310825321201499    0.699460465969531    0.616698958131546  0.0000
  Si     Si        0.887779643662382    0.041736770497758    0.371208214108705  0.0000
  Si     Si        0.119440892971586    0.005733618418023    0.672311038078001  0.0000
  Si     Si        0.085850462278563    0.995273123724372    0.168763760483436  0.0000
  Si     Si        0.906308642927264    0.030688889890518    0.857475979381151  0.0000
  O1     O1        0.263045153579368    0.264812451322187    0.455599161809547  0.0000
  O1     O1        0.770436136322343    0.337010107149966    0.572822756327366  0.0000
  O2     O2        0.696251836449505    0.722902794365631    0.556055836705269  0.0000
  O2     O2        0.269567838116286    0.693536293746679    0.451639343832076  0.0000
  O3     O3        0.283373461438742    0.506584409105728    0.247925189811100  0.0000
  O3     O3        0.723760217451031    0.561254926524120    0.778050658556634  0.0000
  O1     O1        0.507550127334854    0.261801789279146    0.348643664434006  0.0000
  O1     O1        0.531550679934072    0.272925339746816    0.683648927302949  0.0000
  O2     O2        0.487549605382678    0.770444516700863    0.683342827805916  0.0000
  O2     O2        0.474257688702530    0.777583593933599    0.325442336039481  0.0000
  O3     O3        0.199787652913389    0.159885401481039    0.183857682115559  0.0000
  O3     O3        0.850674923619096    0.225760144296737    0.839846279357069  0.0000
  O2     O2        0.756916402329367    0.908486693628436    0.784327895260091  0.0000
  O2     O2        0.183556294473713    0.821301021383114    0.198715992956097  0.0000
  O3     O3        0.294549370053657    0.508184279276075    0.668391791021520  0.0000
  O3     O3        0.694245783723420    0.557218657264949    0.339500503645658  0.0000
  O3     O3        0.249273462542709    0.155697489462334    0.712259304514724  0.0000
  O3     O3        0.807329294544056    0.223186329347659    0.329324323219678  0.0000
  O2     O2        0.752913130420805    0.894517170130562    0.350279111787903  0.0000
  O2     O2        0.194741775060976    0.822765283303912    0.659230047011654  0.0000
  O2     O2        0.990123700310985    0.050250976531219    0.530059206468856  0.0000
  O2     O2        0.990874390800895    0.002026028630244    0.276082528265018  0.0000
  O2     O2        0.042096099270662    0.991407242922890    0.792710798235923  0.0000
  O2     O2        0.966273374393117    0.983144953761057    0.016960252077372  0.0000
