data_c00046.vasp
_audit_creation_method             Generated by GULP
_audit_author_name                 Salvador R. G. Balestra
_symmetry_space_group_name_H-M     'P 1             '
_symmetry_Int_Tables_number        1

loop_
_symmetry_equiv_pos_site_id
_symmetry_equiv_pos_as_xyz
_cell_length_a                        9.1399
_cell_length_b                        7.6915
_cell_length_c                       10.2029
_cell_angle_alpha                   88.3117
_cell_angle_beta                   108.8980
_cell_angle_gamma                   90.6383

loop_
_atom_site_label
_atom_site_type_symbol
_atom_site_fract_x
_atom_site_fract_y
_atom_site_fract_z
_atom_site_charge
  Ge     Ge        0.313819999999964    0.296860000000038    0.309830000000034  0.0000
  Ge     Ge        0.287941504349240    0.719612411689584    0.310255086614785  0.0000
  Ge     Ge        0.353522325145194    0.283484034313273    0.631794111264179  0.0000
  Ge     Ge        0.128532300806238    0.987760212391174    0.688821338003494  0.0000
  Si     Si        0.701014028592317    0.334920850742488    0.704896507479728  0.0000
  Si     Si        0.679455833661228    0.724302595879839    0.701034068194967  0.0000
  Si     Si        0.663530321265301    0.350253595131893    0.384223156403035  0.0000
  Si     Si        0.650550519969146    0.745018832385937    0.384149144227028  0.0000
  Si     Si        0.322915564306701    0.695405492485364    0.622607279714936  0.0000
  Si     Si        0.877641563515025    0.041542646685233    0.380254267716670  0.0000
  Si     Si        0.066029233181759    0.021410549117237    0.168675121772961  0.0000
  Si     Si        0.900800623970558    0.019098761830362    0.855544172847698  0.0000
  O1     O1        0.322225831857960    0.208143947449980    0.468560363193527  0.0000
  O2     O2        0.648391609268482    0.327115476622020    0.537721189683293  0.0000
  O2     O2        0.678560957711732    0.774348136080613    0.546709588494857  0.0000
  O3     O3        0.286163874636935    0.784399863078942    0.470773877929517  0.0000
  O1     O1        0.245430985596757    0.505165567866590    0.288470632102303  0.0000
  O2     O2        0.755530500230306    0.532991157791241    0.748492220087241  0.0000
  O3     O3        0.494369287179281    0.303442025480553    0.285747848698552  0.0000
  O3     O3        0.546072653764996    0.283208914494977    0.736621884845019  0.0000
  O2     O2        0.505883627914549    0.718597562384405    0.705860634948499  0.0000
  O3     O3        0.471095965344321    0.765132003980194    0.300058291336533  0.0000
  O3     O3        0.195437594179129    0.167994154307483    0.183972886361550  0.0000
  O2     O2        0.840140338463209    0.204757435998768    0.779386346131437  0.0000
  O2     O2        0.772702211094711    0.868817368408908    0.804320071223493  0.0000
  O3     O3        0.147700544185879    0.835534282049864    0.186594763509062  0.0000
  O3     O3        0.282163793778629    0.493618725050345    0.608898405436827  0.0000
  O2     O2        0.706750757563193    0.551600320917699    0.361652274950779  0.0000
  O1     O1        0.254383981747806    0.157520282714428    0.714141133312671  0.0000
  O2     O2        0.794079611270651    0.229005776570107    0.361966074122421  0.0000
  O2     O2        0.751623331145498    0.886693848845019    0.331964310879157  0.0000
  O3     O3        0.224109876169017    0.792683523118251    0.700220414802513  0.0000
  O3     O3        0.974952909685192    0.011353018533872    0.538632522470773  0.0000
  O2     O2        0.986470624722354    0.049070874455232    0.286047212336815  0.0000
  O3     O3        0.054715219580931    0.972790701846901    0.824536016537817  0.0000
  O2     O2        0.935001181801476    0.037280209919380    0.019138041055077  0.0000
