data_c00071.vasp
_audit_creation_method             Generated by GULP
_audit_author_name                 Salvador R. G. Balestra
_symmetry_space_group_name_H-M     'P 1             '
_symmetry_Int_Tables_number        1

loop_
_symmetry_equiv_pos_site_id
_symmetry_equiv_pos_as_xyz
_cell_length_a                        9.2621
_cell_length_b                        7.5999
_cell_length_c                       10.2339
_cell_angle_alpha                   84.7650
_cell_angle_beta                   110.6228
_cell_angle_gamma                   90.8949

loop_
_atom_site_label
_atom_site_type_symbol
_atom_site_fract_x
_atom_site_fract_y
_atom_site_fract_z
_atom_site_charge
  Ge     Ge        0.313819999999964    0.296860000000038    0.309830000000034  0.0000
  Ge     Ge        0.361362315455205    0.226616817742635    0.640561837557741  0.0000
  Ge     Ge        0.343686103943489    0.627705510101064    0.653338123095552  0.0000
  Ge     Ge        0.878312405779069    0.042594704215157    0.357649315483930  0.0000
  Si     Si        0.722104821220135    0.274784163463138    0.709520800480065  0.0000
  Si     Si        0.689945369219549    0.684614798478772    0.722099889584405  0.0000
  Si     Si        0.308998799328930    0.687514654268493    0.329246917086507  0.0000
  Si     Si        0.678115489990871    0.336185779909670    0.395591315527339  0.0000
  Si     Si        0.649302085353153    0.742403005316558    0.403322114861432  0.0000
  Si     Si        0.133736287310275    0.938126756625645    0.665886420859239  0.0000
  Si     Si        0.087984108053792    0.003141346068972    0.178278528811952  0.0000
  Si     Si        0.935911335538628    0.954837259890819    0.861415335332697  0.0000
  O1     O1        0.281253978188937    0.228235499432721    0.460997121146211  0.0000
  O2     O2        0.746610193416542    0.272506511541560    0.561673164893712  0.0000
  O2     O2        0.693755518852020    0.757315047603254    0.569580124590964  0.0000
  O3     O3        0.348163431652996    0.600082815620097    0.487817879640846  0.0000
  O3     O3        0.264394794148360    0.517125579821123    0.244011125147983  0.0000
  O2     O2        0.731990153306280    0.474745603969843    0.754410596783187  0.0000
  O3     O3        0.505145039977397    0.269285013753318    0.331491151400889  0.0000
  O3     O3        0.558518528053396    0.194244028346766    0.694779221918245  0.0000
  O3     O3        0.524811862851254    0.714134376530490    0.735075426011292  0.0000
  O2     O2        0.466255872640046    0.781585901865598    0.323466142050907  0.0000
  O3     O3        0.197437448053964    0.168290378393401    0.184611411299034  0.0000
  O2     O2        0.854862561037967    0.148771712739818    0.822304688645100  0.0000
  O2     O2        0.813911695990347    0.796766647047321    0.833783083107581  0.0000
  O2     O2        0.178852803633229    0.838988900392863    0.289182835293294  0.0000
  O1     O1        0.326466774861861    0.412659998192643    0.708511080857891  0.0000
  O2     O2        0.686228929746526    0.547111000738902    0.373140043549969  0.0000
  O3     O3        0.288251318532935    0.049611303518439    0.714119998266123  0.0000
  O3     O3        0.785107867429538    0.245591512304671    0.328656242559719  0.0000
  O3     O3        0.746348828349531    0.876736710981488    0.342827099583170  0.0000
  O3     O3        0.186728217362332    0.740855935644059    0.654867317935044  0.0000
  O3     O3        0.025100099897682    0.025706593709764    0.516189315005436  0.0000
  O3     O3        0.943011690157206    0.046986527327322    0.219595001101469  0.0000
  O2     O2        0.050067154442676    0.929870765251583    0.778167026272872  0.0000
  O2     O2        0.035981700291475    0.935659008603794    0.024773059803465  0.0000
