data_c00053.vasp
_audit_creation_method             Generated by GULP
_audit_author_name                 Salvador R. G. Balestra
_symmetry_space_group_name_H-M     'P 1             '
_symmetry_Int_Tables_number        1

loop_
_symmetry_equiv_pos_site_id
_symmetry_equiv_pos_as_xyz
_cell_length_a                        8.9912
_cell_length_b                        7.7070
_cell_length_c                       10.2612
_cell_angle_alpha                   90.7929
_cell_angle_beta                   106.8489
_cell_angle_gamma                   88.2902

loop_
_atom_site_label
_atom_site_type_symbol
_atom_site_fract_x
_atom_site_fract_y
_atom_site_fract_z
_atom_site_charge
  Ge     Ge        0.313819999999964    0.296860000000038    0.309830000000034  0.0000
  Ge     Ge        0.354873807790018    0.704650067150154    0.323854242991260  0.0000
  Ge     Ge        0.689835131190342    0.244498804065106    0.404126357005027  0.0000
  Ge     Ge        0.922472640458501    0.960155353969176    0.871620282529321  0.0000
  Si     Si        0.690998475676247    0.253469301028915    0.712889473187905  0.0000
  Si     Si        0.717582405457647    0.651991870798229    0.717313948948255  0.0000
  Si     Si        0.333500400694454    0.299318099197198    0.625792994649120  0.0000
  Si     Si        0.718616416531324    0.646152479354360    0.413578835240263  0.0000
  Si     Si        0.363972021873237    0.698560369645912    0.637248470810099  0.0000
  Si     Si        0.923801674326915    0.947215871820464    0.391461704888866  0.0000
  Si     Si        0.146812422663575    0.997925324021408    0.687394753814394  0.0000
  Si     Si        0.115936457259176    0.986706874330831    0.184006816497560  0.0000
  O3     O3        0.307498222588321    0.243066641453032    0.471428417612510  0.0000
  O3     O3        0.702481905959566    0.182653107198256    0.568540794578194  0.0000
  O2     O2        0.718888665106414    0.702881114280782    0.566117029977258  0.0000
  O3     O3        0.351329566994798    0.759328064311763    0.486652924008554  0.0000
  O1     O1        0.268132431588728    0.510337459091148    0.276948081268200  0.0000
  O2     O2        0.758207102790740    0.447298040248405    0.739733651651278  0.0000
  O1     O1        0.500565930544087    0.248403789361857    0.306377339518835  0.0000
  O2     O2        0.511517437252200    0.261673376089665    0.711893537794291  0.0000
  O2     O2        0.544015305368187    0.694835442536913    0.728636103082106  0.0000
  O3     O3        0.544883729239587    0.678534972706474    0.318482866385926  0.0000
  O3     O3        0.173618045409608    0.181910800015727    0.192973718982702  0.0000
  O3     O3        0.785769989064722    0.126374463323299    0.829761119411682  0.0000
  O3     O3        0.843079021392632    0.759866552950841    0.825249194860777  0.0000
  O3     O3        0.269068200007811    0.862989311737010    0.208632573272748  0.0000
  O2     O2        0.293753749216449    0.505717044837025    0.633753301440276  0.0000
  O3     O3        0.768385055285156    0.447042985652590    0.406719278210115  0.0000
  O2     O2        0.225050940142123    0.184401468031339    0.688999694830006  0.0000
  O3     O3        0.797205871297906    0.099381594385265    0.336847161509298  0.0000
  O2     O2        0.840009640511427    0.762762672384699    0.368626857238188  0.0000
  O2     O2        0.269121924232812    0.836462566047297    0.703314409685798  0.0000
  O2     O2        0.003700853070422    0.979943795089002    0.551643626415939  0.0000
  O2     O2        0.051273008507849    0.939358481298289    0.310989222001488  0.0000
  O3     O3        0.081072524389604    0.996242457953454    0.815345085901852  0.0000
  O3     O3        0.985500771007589    0.951651896395254    0.046429335352836  0.0000
