data_c00082.vasp
_audit_creation_method             Generated by GULP
_audit_author_name                 Salvador R. G. Balestra
_symmetry_space_group_name_H-M     'P 1             '
_symmetry_Int_Tables_number        1

loop_
_symmetry_equiv_pos_site_id
_symmetry_equiv_pos_as_xyz
_cell_length_a                        9.0636
_cell_length_b                        7.6312
_cell_length_c                       10.4197
_cell_angle_alpha                   86.9668
_cell_angle_beta                   108.9721
_cell_angle_gamma                   92.0554

loop_
_atom_site_label
_atom_site_type_symbol
_atom_site_fract_x
_atom_site_fract_y
_atom_site_fract_z
_atom_site_charge
  Ge     Ge        0.313819999999964    0.296860000000038    0.309830000000034  0.0000
  Ge     Ge        0.685567859117145    0.365739002547203    0.395472521255112  0.0000
  Ge     Ge        0.628718788043134    0.777638426734796    0.393754864794390  0.0000
  Ge     Ge        0.879907564338155    0.063007934129154    0.347880525077295  0.0000
  Si     Si        0.692443993497887    0.316313921152978    0.701849880342763  0.0000
  Si     Si        0.664299902467943    0.711965867845301    0.709052777769814  0.0000
  Si     Si        0.271044406942788    0.704249916804118    0.317475255730867  0.0000
  Si     Si        0.327237474565841    0.270448815498155    0.617089825555297  0.0000
  Si     Si        0.304492831445319    0.664848228492825    0.627165909040155  0.0000
  Si     Si        0.109604318328158    0.967757302023318    0.650291578998657  0.0000
  Si     Si        0.071907973588286    0.010416825940509    0.151699692446856  0.0000
  Si     Si        0.897398613934141    0.001049818738898    0.839363324648044  0.0000
  O3     O3        0.260587668905103    0.255199012009109    0.455125104908083  0.0000
  O3     O3        0.743688600968578    0.329084358703467    0.570430593025092  0.0000
  O3     O3        0.696989095856811    0.759999384599058    0.569748226375525  0.0000
  O2     O2        0.247627945655447    0.679102389158757    0.464427707171661  0.0000
  O3     O3        0.276413244715950    0.516239798377105    0.259897573703861  0.0000
  O2     O2        0.706864429328614    0.510563492752677    0.761018730460208  0.0000
  O1     O1        0.504997179478979    0.263751716182348    0.334489337026353  0.0000
  O2     O2        0.513364747889422    0.244770244704397    0.662458968165095  0.0000
  O2     O2        0.481644237809985    0.737816705136630    0.688038628522718  0.0000
  O3     O3        0.430758492116891    0.811723708758085    0.336736099590144  0.0000
  O3     O3        0.204167304167487    0.160809956510043    0.187536861199276  0.0000
  O2     O2        0.805559097904361    0.183519104718008    0.812083036175049  0.0000
  O2     O2        0.771508813151678    0.841236582323742    0.820794057181038  0.0000
  O2     O2        0.131579651010619    0.820053344505671    0.219957015699041  0.0000
  O2     O2        0.292417869060812    0.458269223206035    0.666895958722857  0.0000
  O1     O1        0.669913064530894    0.580582953968448    0.342564190647102  0.0000
  O2     O2        0.242400308530879    0.122027688642045    0.685127882169019  0.0000
  O1     O1        0.831817945713532    0.276364840204610    0.353291817513925  0.0000
  O1     O1        0.708273493786114    0.947783912319973    0.328351160337063  0.0000
  O2     O2        0.194549424929522    0.778530529191864    0.684086499466032  0.0000
  O3     O3        0.013955017834570    0.975416186716632    0.492128406927330  0.0000
  O3     O3        0.932909772105572    0.058523060275337    0.204766229238165  0.0000
  O2     O2        0.997768104893175    0.985272424108809    0.739048737724837  0.0000
  O2     O2        0.013898263223108    0.992398492960911    0.990775806606594  0.0000
