data_c00072.vasp
_audit_creation_method             Generated by GULP
_audit_author_name                 Salvador R. G. Balestra
_symmetry_space_group_name_H-M     'P 1             '
_symmetry_Int_Tables_number        1

loop_
_symmetry_equiv_pos_site_id
_symmetry_equiv_pos_as_xyz
_cell_length_a                        9.1468
_cell_length_b                        7.6766
_cell_length_c                       10.2678
_cell_angle_alpha                   89.5434
_cell_angle_beta                   111.0704
_cell_angle_gamma                   87.7838

loop_
_atom_site_label
_atom_site_type_symbol
_atom_site_fract_x
_atom_site_fract_y
_atom_site_fract_z
_atom_site_charge
  Ge     Ge        0.313819999999964    0.296860000000038    0.309830000000034  0.0000
  Ge     Ge        0.343926793467622    0.307888947231307    0.629943688877020  0.0000
  Ge     Ge        0.391065507682933    0.719490614406921    0.638291671268398  0.0000
  Ge     Ge        0.159910000962313    0.004227979371454    0.694924975257404  0.0000
  Si     Si        0.700128520153482    0.260957304643096    0.700188829395220  0.0000
  Si     Si        0.752140541821113    0.644076363647792    0.715944323686264  0.0000
  Si     Si        0.340081668058883    0.713230841781728    0.320085417299571  0.0000
  Si     Si        0.665759144756515    0.274991291904337    0.381449645008102  0.0000
  Si     Si        0.696141496657276    0.664349678598672    0.393412790693935  0.0000
  Si     Si        0.903341876161036    0.962942156109912    0.384027043036974  0.0000
  Si     Si        0.090221189098599    0.002215562469556    0.176532986566992  0.0000
  Si     Si        0.941000496906057    0.953411240897944    0.860868918319659  0.0000
  O1     O1        0.309633099248066    0.227297023199486    0.466549065255968  0.0000
  O2     O2        0.644577792809347    0.264200594770661    0.531508940593213  0.0000
  O2     O2        0.735089479158019    0.690014266226776    0.557516693295170  0.0000
  O3     O3        0.355663806650412    0.789212590632145    0.468878534007326  0.0000
  O3     O3        0.276413575933971    0.520841729972890    0.300181764287662  0.0000
  O2     O2        0.795723365216454    0.437413580575754    0.753313869143786  0.0000
  O3     O3        0.488320880084914    0.257102451190736    0.279467701641902  0.0000
  O3     O3        0.541954707095262    0.261822235696088    0.731443116605238  0.0000
  O3     O3        0.588796877818683    0.687337183466854    0.732574982269418  0.0000
  O2     O2        0.512620134907167    0.710341024940538    0.308490200383686  0.0000
  O3     O3        0.167522157347740    0.186853952754699    0.186886889673913  0.0000
  O2     O2        0.809757594616491    0.091429976048292    0.762507763161478  0.0000
  O2     O2        0.887100912629838    0.756938554350669    0.820617967128637  0.0000
  O2     O2        0.225004995752830    0.848581463566118    0.204692896330539  0.0000
  O1     O1        0.302920128940610    0.525798405817039    0.630176406567410  0.0000
  O2     O2        0.732655091672884    0.463420207190340    0.363710418767270  0.0000
  O1     O1        0.215758370733221    0.212310120844320    0.692185139949196  0.0000
  O2     O2        0.787736248845353    0.132649822361615    0.363880581809018  0.0000
  O2     O2        0.801391749792303    0.790402645218062    0.341520297161626  0.0000
  O1     O1        0.324877723630979    0.874170491926643    0.722176937676310  0.0000
  O3     O3        0.017296089152567    0.940461173845488    0.542091534511293  0.0000
  O2     O2        0.999065022009380    0.983498330349352    0.282879385698416  0.0000
  O3     O3        0.099308123778725    0.978438437057037    0.834018906804740  0.0000
  O2     O2        0.964238678948932    0.983735752431059    0.021120388550409  0.0000
