data_c00017.vasp
_audit_creation_method             Generated by GULP
_audit_author_name                 Salvador R. G. Balestra
_symmetry_space_group_name_H-M     'P 1             '
_symmetry_Int_Tables_number        1

loop_
_symmetry_equiv_pos_site_id
_symmetry_equiv_pos_as_xyz
_cell_length_a                        8.9963
_cell_length_b                        7.6704
_cell_length_c                       10.2907
_cell_angle_alpha                   91.1214
_cell_angle_beta                   107.3303
_cell_angle_gamma                   87.9292

loop_
_atom_site_label
_atom_site_type_symbol
_atom_site_fract_x
_atom_site_fract_y
_atom_site_fract_z
_atom_site_charge
  Ge     Ge        0.313819999999964    0.296860000000038    0.309830000000034  0.0000
  Ge     Ge        0.689284000816397    0.248188291932652    0.710157681340619  0.0000
  Ge     Ge        0.715968049930318    0.636506634218340    0.404563280156847  0.0000
  Ge     Ge        0.359614376959016    0.705077981340497    0.629536252154197  0.0000
  Si     Si        0.725638937104327    0.650952103235476    0.715005906410048  0.0000
  Si     Si        0.350479713172382    0.698882406589267    0.318886294650831  0.0000
  Si     Si        0.323233865576472    0.303185157914737    0.620398481224597  0.0000
  Si     Si        0.679711511382567    0.233269284232867    0.399544602609515  0.0000
  Si     Si        0.910024670140179    0.941128433959029    0.354830706940970  0.0000
  Si     Si        0.127755014719271    0.001552766763269    0.655100649046693  0.0000
  Si     Si        0.115337219407383    0.986528312317688    0.161171423492755  0.0000
  Si     Si        0.923021481475415    0.957660689810352    0.853233233684960  0.0000
  O3     O3        0.260500103567238    0.307641138592043    0.457037136172602  0.0000
  O3     O3        0.742547947295024    0.225755980064660    0.562913559435986  0.0000
  O3     O3        0.779780618345652    0.639003708169003    0.579896710507375  0.0000
  O3     O3        0.296843571970552    0.713745847908502    0.454299458096018  0.0000
  O3     O3        0.317722092967189    0.506529787908446    0.253817664944509  0.0000
  O3     O3        0.720611807938283    0.459648314589554    0.771803558291022  0.0000
  O3     O3        0.497255191982917    0.199382247318018    0.347134808027813  0.0000
  O3     O3        0.493043110699998    0.209598096542827    0.667603635701307  0.0000
  O3     O3        0.555868117576404    0.744734525385775    0.681072979735092  0.0000
  O3     O3        0.532330772611930    0.733212991762806    0.353385693973781  0.0000
  O3     O3        0.182022036627045    0.178250268327930    0.188577497890196  0.0000
  O3     O3        0.789074685955611    0.106185806433375    0.835482448129115  0.0000
  O2     O2        0.848239029497811    0.768187321795422    0.825476364540368  0.0000
  O2     O2        0.255115991257366    0.845165025855667    0.214700624594479  0.0000
  O3     O3        0.330876783066637    0.497679842787517    0.679702640071546  0.0000
  O3     O3        0.710373233960746    0.422620768329293    0.349513016223481  0.0000
  O2     O2        0.204837256630003    0.190511628566885    0.673278949587240  0.0000
  O2     O2        0.770334456067292    0.083482968876515    0.339229036275794  0.0000
  O3     O3        0.842187845912960    0.749571317538684    0.344043941666566  0.0000
  O3     O3        0.261398730567437    0.852366156614308    0.703840315294252  0.0000
  O2     O2        0.043680065555475    0.962308038768043    0.496769787844826  0.0000
  O2     O2        0.979397098015788    0.964588303665066    0.230527332148161  0.0000
  O2     O2        0.008069082639319    0.003065130570490    0.741590885951283  0.0000
  O2     O2        0.045586746580321    0.957894008576090    0.000725052034081  0.0000
