data_c00073.vasp
_audit_creation_method             Generated by GULP
_audit_author_name                 Salvador R. G. Balestra
_symmetry_space_group_name_H-M     'P 1             '
_symmetry_Int_Tables_number        1

loop_
_symmetry_equiv_pos_site_id
_symmetry_equiv_pos_as_xyz
_cell_length_a                        9.2330
_cell_length_b                        7.6002
_cell_length_c                       10.0273
_cell_angle_alpha                   86.5226
_cell_angle_beta                   110.6548
_cell_angle_gamma                   87.1992

loop_
_atom_site_label
_atom_site_type_symbol
_atom_site_fract_x
_atom_site_fract_y
_atom_site_fract_z
_atom_site_charge
  Ge     Ge        0.313819999999964    0.296860000000038    0.309830000000034  0.0000
  Ge     Ge        0.354455870516978    0.261282000877743    0.651346382193242  0.0000
  Ge     Ge        0.410705906843793    0.651909344015485    0.674480070355048  0.0000
  Ge     Ge        0.113696363450284    0.983561661405384    0.182581328835852  0.0000
  Si     Si        0.718006827568582    0.195821060648908    0.728974984256935  0.0000
  Si     Si        0.760025717313300    0.597789811214722    0.745943407850524  0.0000
  Si     Si        0.370353702763685    0.678938992047774    0.344115676396573  0.0000
  Si     Si        0.677851189367275    0.234502580569194    0.403525186906598  0.0000
  Si     Si        0.715974597934944    0.633780845235781    0.420410320556132  0.0000
  Si     Si        0.898324654509293    0.937784998233727    0.357082968416792  0.0000
  Si     Si        0.155955487838343    0.959187538806090    0.659268098375581  0.0000
  Si     Si        0.971978330175740    0.884129100775292    0.866326700128818  0.0000
  O1     O1        0.299598706151299    0.239139983807281    0.471653470702720  0.0000
  O2     O2        0.704355701476451    0.169371788886318    0.566838589068815  0.0000
  O2     O2        0.753944609185776    0.660099406225076    0.586907931640377  0.0000
  O3     O3        0.409923091297152    0.599502523170029    0.507611271899864  0.0000
  O3     O3        0.282958769249483    0.522294766943087    0.255631406853930  0.0000
  O2     O2        0.785193113153524    0.385175795849562    0.775077054090583  0.0000
  O3     O3        0.498930308272840    0.238162901921122    0.310319637891002  0.0000
  O3     O3        0.549581251920097    0.186045463234438    0.736646911016390  0.0000
  O3     O3        0.605689643110000    0.664822856780612    0.770679900098572  0.0000
  O2     O2        0.538106708433180    0.703529439952541    0.328342321058328  0.0000
  O1     O1        0.171973627155385    0.192488949528395    0.186519905127221  0.0000
  O2     O2        0.838696469829839    0.044450461280865    0.834304603539173  0.0000
  O2     O2        0.900063663137149    0.693667383218767    0.856050958743797  0.0000
  O3     O3        0.272809276465467    0.862912501595599    0.310847572778730  0.0000
  O1     O1        0.337255957871132    0.462165771820887    0.714535951987132  0.0000
  O2     O2        0.743636190646049    0.428198052809279    0.397052418875256  0.0000
  O3     O3        0.216950063631870    0.147739153143110    0.696651280266602  0.0000
  O2     O2        0.774631812261068    0.098807527656384    0.345126740252182  0.0000
  O2     O2        0.828761825684206    0.748302574068940    0.365169442749974  0.0000
  O3     O3        0.315685013780981    0.838479428068581    0.693187627208011  0.0000
  O2     O2        0.055966437873595    0.946264167343849    0.492755403558628  0.0000
  O3     O3        0.946661987392474    0.956910727577033    0.219593264755798  0.0000
  O2     O2        0.058988837632568    0.895951684686357    0.753910072604275  0.0000
  O3     O3        0.092707423126690    0.896945069801645    0.022529703267256  0.0000
