data_c00018.vasp
_audit_creation_method             Generated by GULP
_audit_author_name                 Salvador R. G. Balestra
_symmetry_space_group_name_H-M     'P 1             '
_symmetry_Int_Tables_number        1

loop_
_symmetry_equiv_pos_site_id
_symmetry_equiv_pos_as_xyz
_cell_length_a                        9.0786
_cell_length_b                        7.6425
_cell_length_c                       10.4648
_cell_angle_alpha                   89.1833
_cell_angle_beta                   108.8664
_cell_angle_gamma                   91.1733

loop_
_atom_site_label
_atom_site_type_symbol
_atom_site_fract_x
_atom_site_fract_y
_atom_site_fract_z
_atom_site_charge
  Ge     Ge        0.313819999999964    0.296860000000038    0.309830000000034  0.0000
  Ge     Ge        0.697359311312873    0.344369505615949    0.705042818551297  0.0000
  Ge     Ge        0.628943494678333    0.763339816607287    0.381040525195155  0.0000
  Ge     Ge        0.869839421821027    0.053728272887709    0.338204017435271  0.0000
  Si     Si        0.663621204118787    0.748997693020543    0.692792008437155  0.0000
  Si     Si        0.270451381189761    0.703457167020153    0.305617801128415  0.0000
  Si     Si        0.328284151249067    0.291748580842000    0.616385407631864  0.0000
  Si     Si        0.676080794696146    0.354428160047703    0.396307249887298  0.0000
  Si     Si        0.303717599369594    0.690080795385286    0.611956725241608  0.0000
  Si     Si        0.107097657230351    0.994443632736227    0.642942143818495  0.0000
  Si     Si        0.075510816873340    0.010090074865559    0.148638642753744  0.0000
  Si     Si        0.902655733008490    0.030832802917243    0.837604609496637  0.0000
  O3     O3        0.263980209534634    0.267981840443369    0.455071930338079  0.0000
  O3     O3        0.743141073803101    0.343214140615085    0.558320552941831  0.0000
  O3     O3        0.701855383987308    0.781273834354946    0.554978990056607  0.0000
  O2     O2        0.241048934198203    0.690052970131369    0.449714245989549  0.0000
  O3     O3        0.272925661640053    0.509809247232070    0.251185617569312  0.0000
  O3     O3        0.710512606416444    0.558693016367497    0.756703148733032  0.0000
  O3     O3        0.508685238075461    0.255260872479468    0.349240855394043  0.0000
  O3     O3        0.511250355561960    0.258904109207875    0.673706776438237  0.0000
  O2     O2        0.478549141113427    0.768371554553518    0.661811903647937  0.0000
  O3     O3        0.432163149462587    0.804535810407500    0.324412663178564  0.0000
  O3     O3        0.214144362261499    0.152431401725057    0.187678208062885  0.0000
  O3     O3        0.833265921633302    0.223234420217857    0.824237630240863  0.0000
  O2     O2        0.755336188311224    0.896643444261483    0.797759468869879  0.0000
  O2     O2        0.132121371338878    0.817598363776071    0.207580649224855  0.0000
  O2     O2        0.299468362706182    0.488810396622595    0.659902829671411  0.0000
  O3     O3        0.653069540753289    0.550230307921013    0.340628775963039  0.0000
  O2     O2        0.231202974460576    0.155992022766426    0.678546722232965  0.0000
  O3     O3        0.797345014140046    0.259422728734815    0.341465091501663  0.0000
  O1     O1        0.721061439603093    0.901841261713135    0.303896858643078  0.0000
  O2     O2        0.197781790455633    0.809371383701270    0.671298741559431  0.0000
  O3     O3        0.005846697242379    0.994815056186534    0.487605229177375  0.0000
  O3     O3        0.942471109116868    0.070369488887688    0.206342149629852  0.0000
  O2     O2        0.002792614886091    0.004762445289817    0.738576586980231  0.0000
  O2     O2        0.011340344168545    0.992936868998248    0.987982429409077  0.0000
