data_c00058.vasp
_audit_creation_method             Generated by GULP
_audit_author_name                 Salvador R. G. Balestra
_symmetry_space_group_name_H-M     'P 1             '
_symmetry_Int_Tables_number        1

loop_
_symmetry_equiv_pos_site_id
_symmetry_equiv_pos_as_xyz
_cell_length_a                        9.0551
_cell_length_b                        7.6726
_cell_length_c                       10.3114
_cell_angle_alpha                   91.0991
_cell_angle_beta                   107.8773
_cell_angle_gamma                   88.1751

loop_
_atom_site_label
_atom_site_type_symbol
_atom_site_fract_x
_atom_site_fract_y
_atom_site_fract_z
_atom_site_charge
  Ge     Ge        0.313819999999964    0.296860000000038    0.309830000000034  0.0000
  Ge     Ge        0.351876736075211    0.712798591091688    0.322432231237375  0.0000
  Ge     Ge        0.155701737750328    0.006119711340079    0.688448647892045  0.0000
  Ge     Ge        0.928890448320558    0.960455952792097    0.869280670470366  0.0000
  Si     Si        0.691311424063155    0.254377929617953    0.700918341659313  0.0000
  Si     Si        0.733512669673779    0.647166345882466    0.712645092366791  0.0000
  Si     Si        0.337082599576413    0.309754495464694    0.619932335905671  0.0000
  Si     Si        0.678879948528789    0.249473692484024    0.391984525895271  0.0000
  Si     Si        0.711896292414437    0.646217235401677    0.401490033315703  0.0000
  Si     Si        0.381259579879391    0.712128094813328    0.634582913672200  0.0000
  Si     Si        0.913177099601160    0.951503016130544    0.390013072373283  0.0000
  Si     Si        0.103328091123935    0.993784611848373    0.183063309853490  0.0000
  O3     O3        0.303271199938917    0.237240566863948    0.467411435634304  0.0000
  O2     O2        0.692945998608610    0.207740223067483    0.548286586634168  0.0000
  O2     O2        0.729142034280566    0.686861828333621    0.558998165921098  0.0000
  O3     O3        0.356843693292807    0.783173825635022    0.484116194894526  0.0000
  O1     O1        0.272498377114246    0.512512184118997    0.282245834506933  0.0000
  O2     O2        0.769080603846015    0.442083006212821    0.744474457808377  0.0000
  O3     O3        0.500358247202120    0.245071419049743    0.303524446415926  0.0000
  O2     O2        0.515321859246143    0.264172122777299    0.704926502491140  0.0000
  O2     O2        0.562863692881792    0.700970167797642    0.722546442882563  0.0000
  O3     O3        0.539150190035060    0.696311740436737    0.312489296357832  0.0000
  O3     O3        0.172654814919696    0.184513793431003    0.190156814626173  0.0000
  O3     O3        0.780076219054580    0.109403916453077    0.803859182228620  0.0000
  O3     O3        0.866152253417128    0.752571658396777    0.817011045842986  0.0000
  O3     O3        0.249111028296456    0.859959148275629    0.203666562896091  0.0000
  O2     O2        0.308962802046342    0.518840497934693    0.616965766892543  0.0000
  O2     O2        0.745925471321523    0.440654424609764    0.380792795976751  0.0000
  O3     O3        0.226947219974087    0.212242456880080    0.687075374408932  0.0000
  O2     O2        0.782385842623168    0.106075504873161    0.340577890301460  0.0000
  O2     O2        0.834077572642974    0.762329810377232    0.358311107139925  0.0000
  O3     O3        0.295014482380488    0.841361291013148    0.711028371998229  0.0000
  O3     O3        0.996208919198185    0.970037093736535    0.549773473042430  0.0000
  O2     O2        0.037260628795782    0.959877281033825    0.309272686190315  0.0000
  O1     O1        0.091147985599083    0.004656024795378    0.827873097527436  0.0000
  O3     O3        0.970188884213309    0.964752574574966    0.043945360929883  0.0000
