data_c00044.vasp
_audit_creation_method             Generated by GULP
_audit_author_name                 Salvador R. G. Balestra
_symmetry_space_group_name_H-M     'P 1             '
_symmetry_Int_Tables_number        1

loop_
_symmetry_equiv_pos_site_id
_symmetry_equiv_pos_as_xyz
_cell_length_a                        9.0535
_cell_length_b                        7.6154
_cell_length_c                       10.2679
_cell_angle_alpha                   91.1602
_cell_angle_beta                   107.4410
_cell_angle_gamma                   87.8389

loop_
_atom_site_label
_atom_site_type_symbol
_atom_site_fract_x
_atom_site_fract_y
_atom_site_fract_z
_atom_site_charge
  Ge     Ge        0.313819999999964    0.296860000000038    0.309830000000034  0.0000
  Ge     Ge        0.349846147234328    0.708437706411161    0.320740368391449  0.0000
  Ge     Ge        0.322134203783167    0.313022818975283    0.639195587681773  0.0000
  Ge     Ge        0.366125327897467    0.722629972383945    0.643548586993467  0.0000
  Si     Si        0.681844998766452    0.247965660348388    0.716557725527909  0.0000
  Si     Si        0.729233226129286    0.647297037147313    0.721218336685177  0.0000
  Si     Si        0.673961801349594    0.236667401270294    0.404885430808043  0.0000
  Si     Si        0.714023579407784    0.638815646122806    0.415643988752410  0.0000
  Si     Si        0.914203151134258    0.938483060933999    0.390739800897152  0.0000
  Si     Si        0.133985627863636    0.009044382555715    0.690024658626235  0.0000
  Si     Si        0.102663314284881    0.992428199280505    0.179428071600352  0.0000
  Si     Si        0.919566397044857    0.955135085460514    0.871153749846361  0.0000
  O1     O1        0.282311299559405    0.302934675921866    0.465801661327472  0.0000
  O2     O2        0.703346448064392    0.220753938461297    0.567119455366262  0.0000
  O2     O2        0.771564232754645    0.645482126414213    0.579922479499321  0.0000
  O1     O1        0.301843300198032    0.733780568417453    0.469198785895063  0.0000
  O1     O1        0.307990821849564    0.504222650722350    0.250619618472933  0.0000
  O2     O2        0.728267302489214    0.446746330268060    0.770432176731927  0.0000
  O3     O3        0.496792590148925    0.199482776172697    0.328993431254024  0.0000
  O3     O3        0.506693732274618    0.219769368226627    0.709206948391219  0.0000
  O3     O3        0.564166269002647    0.741358439308958    0.698656601601248  0.0000
  O3     O3        0.547591421855866    0.732199102238650    0.359392521818849  0.0000
  O3     O3        0.166489488130450    0.186198189635255    0.196158739817746  0.0000
  O2     O2        0.789408525819181    0.107585407918302    0.818940613523102  0.0000
  O2     O2        0.855419526394004    0.760485158779395    0.831743317582296  0.0000
  O3     O3        0.252003902474045    0.862813229883949    0.204048885743702  0.0000
  O1     O1        0.318572538699947    0.525108403720137    0.693453180612057  0.0000
  O2     O2        0.710264263568249    0.434513958387440    0.367769902326654  0.0000
  O3     O3        0.179615743313178    0.208547863142853    0.684779810407128  0.0000
  O2     O2        0.786878804681628    0.098723967443632    0.357994024536159  0.0000
  O2     O2        0.833652108994310    0.749162335446096    0.362575844483237  0.0000
  O3     O3        0.291351478883692    0.893625212407772    0.717736183915470  0.0000
  O2     O2        0.016548489680871    0.945247902253834    0.547467072484549  0.0000
  O2     O2        0.021941583430945    0.950040548346047    0.294642065022782  0.0000
  O2     O2        0.061967163213185    0.985611052452769    0.812732131179997  0.0000
  O2     O2        0.978224647355374    0.965012677370811    0.033788531860762  0.0000
