data_c00092.vasp
_audit_creation_method             Generated by GULP
_audit_author_name                 Salvador R. G. Balestra
_symmetry_space_group_name_H-M     'P 1             '
_symmetry_Int_Tables_number        1

loop_
_symmetry_equiv_pos_site_id
_symmetry_equiv_pos_as_xyz
_cell_length_a                        9.1566
_cell_length_b                        7.7323
_cell_length_c                       10.1189
_cell_angle_alpha                   88.1848
_cell_angle_beta                   107.8669
_cell_angle_gamma                   90.2002

loop_
_atom_site_label
_atom_site_type_symbol
_atom_site_fract_x
_atom_site_fract_y
_atom_site_fract_z
_atom_site_charge
  Ge     Ge        0.313819999999964    0.296860000000038    0.309830000000034  0.0000
  Ge     Ge        0.683834901634166    0.287462368505719    0.403009267064483  0.0000
  Ge     Ge        0.895849390136574    0.984421913965512    0.347097786538531  0.0000
  Ge     Ge        0.918488449235024    0.958928958030010    0.846623619262714  0.0000
  Si     Si        0.692079311300962    0.260504704934625    0.717618005879703  0.0000
  Si     Si        0.695794786820523    0.663536044401787    0.726601394844668  0.0000
  Si     Si        0.325296447854029    0.691288498570142    0.331223219758450  0.0000
  Si     Si        0.339372801158915    0.270722669361739    0.637340990336845  0.0000
  Si     Si        0.683019628890115    0.689605353240902    0.419046987486374  0.0000
  Si     Si        0.343171619706185    0.663396291442050    0.647226052828115  0.0000
  Si     Si        0.132813357129204    0.964239825778706    0.648937438407374  0.0000
  Si     Si        0.109120087807202    0.989395529535820    0.159800982656898  0.0000
  O3     O3        0.312909607685948    0.244075470553562    0.476401565448780  0.0000
  O3     O3        0.701507263366880    0.205643382410774    0.568868518813861  0.0000
  O2     O2        0.708343822225273    0.740309616244495    0.579081908449649  0.0000
  O2     O2        0.315892856964394    0.708979748067487    0.486081454286795  0.0000
  O3     O3        0.254489469941778    0.511279112002565    0.271368500039398  0.0000
  O2     O2        0.740327756105206    0.461159109482687    0.742154345046591  0.0000
  O1     O1        0.496085183214896    0.267599410738069    0.302443391684138  0.0000
  O2     O2        0.517840518030013    0.237358868085716    0.721150157384306  0.0000
  O2     O2        0.522148855620421    0.686946192310441    0.731936921896885  0.0000
  O2     O2        0.502272720919122    0.687758423193739    0.335708136749931  0.0000
  O3     O3        0.176336004849455    0.180126685289685    0.193867945377479  0.0000
  O3     O3        0.803285380390121    0.139371738468236    0.835280574885009  0.0000
  O3     O3        0.810304721840136    0.773214820733578    0.843346068020801  0.0000
  O2     O2        0.243880451068819    0.855641992445546    0.240344751863071  0.0000
  O2     O2        0.292347119053275    0.465583957508980    0.664922567783637  0.0000
  O3     O3        0.746423508441012    0.499264847625974    0.413841930085933  0.0000
  O2     O2        0.236005815835090    0.136182486634298    0.693719468890482  0.0000
  O1     O1        0.806611160574883    0.179477454073301    0.337725752863035  0.0000
  O3     O3        0.762643406135474    0.826545253677914    0.345151655332321  0.0000
  O2     O2        0.240277222571693    0.793126455566971    0.703489709044505  0.0000
  O3     O3        0.061666077733155    0.963279418575786    0.483702530449333  0.0000
  O3     O3        0.955310357796123    0.963163217443215    0.201741860684675  0.0000
  O3     O3        0.993940936883863    0.964415114908306    0.710684316996312  0.0000
  O3     O3        0.068406366400239    0.959616892478648    0.997180984016367  0.0000
