data_c00084.vasp
_audit_creation_method             Generated by GULP
_audit_author_name                 Salvador R. G. Balestra
_symmetry_space_group_name_H-M     'P 1             '
_symmetry_Int_Tables_number        1

loop_
_symmetry_equiv_pos_site_id
_symmetry_equiv_pos_as_xyz
_cell_length_a                        9.0288
_cell_length_b                        7.6331
_cell_length_c                       10.3583
_cell_angle_alpha                   87.2871
_cell_angle_beta                   107.3547
_cell_angle_gamma                   91.8837

loop_
_atom_site_label
_atom_site_type_symbol
_atom_site_fract_x
_atom_site_fract_y
_atom_site_fract_z
_atom_site_charge
  Ge     Ge        0.313819999999964    0.296860000000038    0.309830000000034  0.0000
  Ge     Ge        0.680786561508909    0.366497034174256    0.398815087596026  0.0000
  Ge     Ge        0.623972986153730    0.778488361161058    0.393479747229031  0.0000
  Ge     Ge        0.063288077283912    0.009297297154208    0.148049440910819  0.0000
  Si     Si        0.674682592318434    0.326533645535979    0.704284992620219  0.0000
  Si     Si        0.643452367973624    0.719639904190386    0.709461990275830  0.0000
  Si     Si        0.270709851388303    0.705730841636669    0.312052143798479  0.0000
  Si     Si        0.311129026204003    0.277982621904960    0.614471533277256  0.0000
  Si     Si        0.286965557067169    0.673033943466607    0.621683068415730  0.0000
  Si     Si        0.866809027755166    0.066137508598602    0.346751713761704  0.0000
  Si     Si        0.087595504475815    0.978703656799554    0.637781268165952  0.0000
  Si     Si        0.876175097800380    0.009906534408537    0.831819727205311  0.0000
  O3     O3        0.255408619490334    0.257575032203414    0.454096003896719  0.0000
  O3     O3        0.730567155045673    0.344643723220851    0.573238097056080  0.0000
  O3     O3        0.676331401050504    0.760004792146171    0.567925558414509  0.0000
  O2     O2        0.247287636177787    0.687699058922726    0.460601467234708  0.0000
  O3     O3        0.288761768770693    0.516564610530873    0.261177174501230  0.0000
  O2     O2        0.686274298433350    0.519936041035056    0.765405177740709  0.0000
  O1     O1        0.505479272473715    0.259665569442509    0.337146175007387  0.0000
  O2     O2        0.496823153132190    0.253825533716816    0.665357968538210  0.0000
  O2     O2        0.461151905213657    0.745434529928660    0.691518190552402  0.0000
  O3     O3        0.428255989911051    0.818446878878337    0.327384298354472  0.0000
  O1     O1        0.203517316014208    0.169230791359521    0.185793475095828  0.0000
  O2     O2        0.785637214866324    0.193250327182077    0.812759971429647  0.0000
  O2     O2        0.748334086159888    0.852418101344145    0.817519279413983  0.0000
  O3     O3        0.128499636014296    0.803325398511811    0.209789934964886  0.0000
  O2     O2        0.270273138000366    0.466870397150252    0.660252893372588  0.0000
  O1     O1        0.670479289939798    0.581258743756293    0.343845788875202  0.0000
  O2     O2        0.221956693978922    0.129074219064793    0.680382238726769  0.0000
  O3     O3        0.828631339171823    0.267259326778877    0.357819696785022  0.0000
  O3     O3        0.710896465873136    0.953238491938948    0.335574757661356  0.0000
  O2     O2        0.167900791344541    0.787817986043774    0.670142698487570  0.0000
  O2     O2        0.001050506633523    0.993116647707859    0.477715697560600  0.0000
  O3     O3        0.913965311782367    0.053717305021820    0.211708170956615  0.0000
  O2     O2        0.964878472839068    0.994603432800156    0.719077327300404  0.0000
  O3     O3        0.000371586945209    0.998282725835215    0.975165700590491  0.0000
