data_c00008.vasp
_audit_creation_method             Generated by GULP
_audit_author_name                 Salvador R. G. Balestra
_symmetry_space_group_name_H-M     'P 1             '
_symmetry_Int_Tables_number        1

loop_
_symmetry_equiv_pos_site_id
_symmetry_equiv_pos_as_xyz
_cell_length_a                        9.0071
_cell_length_b                        7.6320
_cell_length_c                       10.1843
_cell_angle_alpha                   89.2079
_cell_angle_beta                   107.2153
_cell_angle_gamma                   87.6642

loop_
_atom_site_label
_atom_site_type_symbol
_atom_site_fract_x
_atom_site_fract_y
_atom_site_fract_z
_atom_site_charge
  Ge     Ge        0.313819999999964    0.296860000000038    0.309830000000034  0.0000
  Ge     Ge        0.690367154500695    0.197591835725217    0.714622970205061  0.0000
  Ge     Ge        0.732879451365366    0.610296112479124    0.735256946017168  0.0000
  Ge     Ge        0.116769428003753    0.982371604153553    0.167301505138612  0.0000
  Si     Si        0.362761248218435    0.692406364529131    0.339730718079702  0.0000
  Si     Si        0.330719287299827    0.268230012972081    0.630553744736691  0.0000
  Si     Si        0.674219752809253    0.225068039802101    0.397896494345512  0.0000
  Si     Si        0.715384612265008    0.624205524666525    0.420394237055961  0.0000
  Si     Si        0.370495595816449    0.663729649356962    0.652282107229887  0.0000
  Si     Si        0.898181393644330    0.926267012717501    0.351226390056158  0.0000
  Si     Si        0.129868903479226    0.963041008043480    0.646095324019307  0.0000
  Si     Si        0.940028208571265    0.909122503484476    0.856420812587735  0.0000
  O3     O3        0.316232378271149    0.233279787129565    0.473172639697902  0.0000
  O3     O3        0.678744978904037    0.151105379752316    0.546864965756666  0.0000
  O3     O3        0.740003859453034    0.680185205629802    0.575084566383879  0.0000
  O2     O2        0.374652506715027    0.712250935557760    0.499533492529735  0.0000
  O3     O3        0.271397272406187    0.520322260576983    0.282369026546364  0.0000
  O1     O1        0.775678828743104    0.392171332457923    0.761666417854910  0.0000
  O3     O3        0.499879310117230    0.246662425699983    0.298962061049289  0.0000
  O3     O3        0.502325517388613    0.214530254660977    0.724993369452986  0.0000
  O3     O3        0.546791388185046    0.658379107178715    0.748313398775790  0.0000
  O2     O2        0.537476496733341    0.664994739518173    0.329309712013669  0.0000
  O1     O1        0.169961535087668    0.194747540306256    0.192798832219661  0.0000
  O3     O3        0.787833742543432    0.038133820343168    0.831748401277497  0.0000
  O3     O3        0.878116340300251    0.715495831862055    0.852887533293164  0.0000
  O3     O3        0.285145934007358    0.864623818676027    0.255586003274487  0.0000
  O2     O2        0.295970631327432    0.474147152669679    0.653230959192756  0.0000
  O2     O2        0.753823565281821    0.415376352993351    0.415488070805713  0.0000
  O2     O2        0.205813129320147    0.151910859823593    0.673684062717505  0.0000
  O2     O2        0.773872574884966    0.088591469327961    0.335013279826501  0.0000
  O2     O2        0.825744590002436    0.737458802066663    0.356680392055441  0.0000
  O2     O2        0.262589609354851    0.807451389602706    0.699709795263398  0.0000
  O2     O2        0.047212787532995    0.945691940923114    0.483959155257629  0.0000
  O3     O3        0.958281304300272    0.930883544050820    0.219194746870277  0.0000
  O2     O2        0.004562864838809    0.953885453238968    0.727906652828216  0.0000
  O3     O3        0.072592561337680    0.939469443724203    0.995148989394966  0.0000
