data_c00049.vasp
_audit_creation_method             Generated by GULP
_audit_author_name                 Salvador R. G. Balestra
_symmetry_space_group_name_H-M     'P 1             '
_symmetry_Int_Tables_number        1

loop_
_symmetry_equiv_pos_site_id
_symmetry_equiv_pos_as_xyz
_cell_length_a                        8.8472
_cell_length_b                        7.6686
_cell_length_c                       10.2383
_cell_angle_alpha                   90.7329
_cell_angle_beta                   106.6069
_cell_angle_gamma                   88.1221

loop_
_atom_site_label
_atom_site_type_symbol
_atom_site_fract_x
_atom_site_fract_y
_atom_site_fract_z
_atom_site_charge
  Ge     Ge        0.313819999999964    0.296860000000038    0.309830000000034  0.0000
  Ge     Ge        0.358196537468322    0.715587453084701    0.317987679143800  0.0000
  Ge     Ge        0.687366799293091    0.225517816248584    0.399676639181414  0.0000
  Ge     Ge        0.730697458406174    0.639174635316911    0.407652917101082  0.0000
  Si     Si        0.695411845223543    0.257885325824177    0.708640754096561  0.0000
  Si     Si        0.726826554559439    0.648998652988574    0.715408283124117  0.0000
  Si     Si        0.324770978959255    0.304553001848271    0.619330275219232  0.0000
  Si     Si        0.357502158808410    0.700877010167697    0.626669180457112  0.0000
  Si     Si        0.935662390490871    0.939330598141506    0.379274017023534  0.0000
  Si     Si        0.141486624668659    0.998752876156050    0.681626232522497  0.0000
  Si     Si        0.120339059733694    0.995092891296277    0.164628647108132  0.0000
  Si     Si        0.915008970888088    0.961816410088418    0.864722334298947  0.0000
  O3     O3        0.254158943638013    0.293262611647232    0.457630025253932  0.0000
  O3     O3        0.754226480965980    0.228598031634497    0.576580346817877  0.0000
  O3     O3        0.788060224251132    0.642590441682322    0.584391818482571  0.0000
  O3     O3        0.298194705975402    0.732233954058520    0.465694991824751  0.0000
  O1     O1        0.329562757244126    0.503684458971293    0.261075464980371  0.0000
  O2     O2        0.736014261723747    0.451265292351010    0.773103611535831  0.0000
  O1     O1        0.491373645719313    0.183714024538423    0.345313532543044  0.0000
  O2     O2        0.506693576669857    0.236220096513557    0.662294282873650  0.0000
  O2     O2        0.546068469930145    0.721842216154589    0.675651367648387  0.0000
  O1     O1        0.554765431233747    0.754022605152127    0.355425567129217  0.0000
  O3     O3        0.181318795194550    0.189383359012167    0.178169937584658  0.0000
  O2     O2        0.781273958319476    0.114305721730673    0.820570224739416  0.0000
  O2     O2        0.836949956517992    0.774537472577088    0.827346865478779  0.0000
  O3     O3        0.262358342250026    0.853630851032965    0.186751095922677  0.0000
  O2     O2        0.313926788305966    0.507194371636948    0.663841943852411  0.0000
  O1     O1        0.713848826282075    0.432061992538977    0.346608854538400  0.0000
  O2     O2        0.225301217764796    0.185165287193979    0.691557176914629  0.0000
  O3     O3        0.788604904692811    0.074652943144478    0.329668805429612  0.0000
  O3     O3        0.874912501667025    0.744263996803184    0.358688754950793  0.0000
  O2     O2        0.273443299817595    0.842762469792403    0.702104787242265  0.0000
  O2     O2        0.008987848345357    0.981858292204150    0.539152387916302  0.0000
  O2     O2        0.061210992707741    0.960165666170163    0.297246568210168  0.0000
  O2     O2        0.060537244050899    0.989809860462502    0.802849510532492  0.0000
  O2     O2        0.981994518166213    0.967069246902754    0.027329676183348  0.0000
