data_c00097.vasp
_audit_creation_method             Generated by GULP
_audit_author_name                 Salvador R. G. Balestra
_symmetry_space_group_name_H-M     'P 1             '
_symmetry_Int_Tables_number        1

loop_
_symmetry_equiv_pos_site_id
_symmetry_equiv_pos_as_xyz
_cell_length_a                        9.1039
_cell_length_b                        7.7188
_cell_length_c                       10.2247
_cell_angle_alpha                   87.3331
_cell_angle_beta                   108.8025
_cell_angle_gamma                   91.8299

loop_
_atom_site_label
_atom_site_type_symbol
_atom_site_fract_x
_atom_site_fract_y
_atom_site_fract_z
_atom_site_charge
  Ge     Ge        0.313819999999964    0.296860000000038    0.309830000000034  0.0000
  Ge     Ge        0.645828466461425    0.742425020706249    0.388117120643084  0.0000
  Ge     Ge        0.312098524177364    0.670837985666205    0.628692864554320  0.0000
  Ge     Ge        0.113783745661770    0.975889298734306    0.681948403095890  0.0000
  Si     Si        0.694460782696117    0.322017650008639    0.702573242761119  0.0000
  Si     Si        0.671798582620224    0.716067572888699    0.709498039067341  0.0000
  Si     Si        0.284317659324284    0.701962200866215    0.311339403101443  0.0000
  Si     Si        0.341247378468487    0.267358333229839    0.625154843409869  0.0000
  Si     Si        0.675273890191846    0.345093050450362    0.389017802474814  0.0000
  Si     Si        0.874983126936424    0.041861968192898    0.373032411607905  0.0000
  Si     Si        0.076861133846572    0.009749763730554    0.176658743426756  0.0000
  Si     Si        0.897718472825874    0.011352282954106    0.863977585980141  0.0000
  O3     O3        0.319444371406211    0.211986279256404    0.470582640970839  0.0000
  O2     O2        0.685551125053435    0.291325806305282    0.546347398145822  0.0000
  O3     O3        0.663070919666179    0.783236896066624    0.556524020417681  0.0000
  O3     O3        0.292429817060592    0.752250517091035    0.463953736203458  0.0000
  O3     O3        0.237124112396261    0.501901043971754    0.286686455335520  0.0000
  O2     O2        0.743798930653064    0.521824515994593    0.738499694121733  0.0000
  O3     O3        0.498365593359359    0.311681229377970    0.296413356763000  0.0000
  O2     O2        0.523755399282496    0.284857804558054    0.713541988472872  0.0000
  O3     O3        0.503846798693175    0.708556601989108    0.726994909792937  0.0000
  O3     O3        0.451760747880506    0.738067234920151    0.292999815296059  0.0000
  O3     O3        0.204840361683339    0.160046907730059    0.186029564928976  0.0000
  O2     O2        0.816639836332467    0.193949200468200    0.805325487536964  0.0000
  O2     O2        0.783212129563515    0.847170075921838    0.815777619735088  0.0000
  O2     O2        0.156869980918382    0.822660374447754    0.202446012838061  0.0000
  O3     O3        0.265221541748033    0.452652424015460    0.622189015787483  0.0000
  O3     O3        0.723689796000323    0.543874320142371    0.378175131679621  0.0000
  O3     O3        0.263979392711222    0.123058817196415    0.698643043088905  0.0000
  O2     O2        0.793484859110519    0.228877261630922    0.345077486906733  0.0000
  O3     O3        0.743282699073853    0.895342778501628    0.319216016074636  0.0000
  O1     O1        0.187257983870564    0.772601759956114    0.690545159551987  0.0000
  O3     O3        0.957876993429569    0.004919977609662    0.534870877716033  0.0000
  O2     O2        0.000595441020039    0.046030691364274    0.294420050622652  0.0000
  O3     O3        0.049966654586013    0.994879570995780    0.821587810523745  0.0000
  O2     O2        0.944706301713335    0.013692945360736    0.029210783373876  0.0000
