data_c00089.vasp
_audit_creation_method             Generated by GULP
_audit_author_name                 Salvador R. G. Balestra
_symmetry_space_group_name_H-M     'P 1             '
_symmetry_Int_Tables_number        1

loop_
_symmetry_equiv_pos_site_id
_symmetry_equiv_pos_as_xyz
_cell_length_a                        9.0425
_cell_length_b                        7.7888
_cell_length_c                       10.2868
_cell_angle_alpha                   87.9928
_cell_angle_beta                   107.4963
_cell_angle_gamma                   90.6237

loop_
_atom_site_label
_atom_site_type_symbol
_atom_site_fract_x
_atom_site_fract_y
_atom_site_fract_z
_atom_site_charge
  Ge     Ge        0.313819999999964    0.296860000000038    0.309830000000034  0.0000
  Ge     Ge        0.693066163967316    0.291906334638628    0.404285336568834  0.0000
  Ge     Ge        0.338106724754351    0.677518315327659    0.635660730464457  0.0000
  Ge     Ge        0.912730863850433    0.973955965458401    0.871531073912759  0.0000
  Si     Si        0.697411103308551    0.275714639302663    0.707424555967196  0.0000
  Si     Si        0.702521117679337    0.668667444505155    0.720004556436206  0.0000
  Si     Si        0.327353103077860    0.697058637898090    0.319243017141511  0.0000
  Si     Si        0.331229226411601    0.280371746268234    0.618264961178361  0.0000
  Si     Si        0.688678314529555    0.691890230461754    0.409471493099658  0.0000
  Si     Si        0.906521875341279    0.993591694758934    0.389116889257927  0.0000
  Si     Si        0.135027961719142    0.979950783866637    0.687317908016372  0.0000
  Si     Si        0.104425374929918    0.991209133911085    0.185604859353151  0.0000
  O3     O3        0.257557012854930    0.274563370369306    0.456354376662597  0.0000
  O3     O3        0.761271182189698    0.257980835094696    0.579591703086451  0.0000
  O2     O2        0.731025614224744    0.693536863769506    0.573094365390102  0.0000
  O3     O3        0.288612159949171    0.705231195378774    0.461228252113639  0.0000
  O3     O3        0.291781173941667    0.510764816495198    0.257231753666356  0.0000
  O2     O2        0.724070888590503    0.467485814535754    0.765861107579938  0.0000
  O1     O1        0.502698979951582    0.238420160185461    0.336657883123908  0.0000
  O2     O2        0.513551845985331    0.243284153937010    0.647364019951240  0.0000
  O3     O3        0.530323275258802    0.729046975127212    0.709690133712670  0.0000
  O2     O2        0.508558606557747    0.740595160571670    0.346009146465437  0.0000
  O3     O3        0.192534254038106    0.171422013649100    0.188071458240781  0.0000
  O3     O3        0.779517698688680    0.138747772605334    0.823587795825547  0.0000
  O3     O3        0.827009511630168    0.777753223737598    0.827076177341968  0.0000
  O2     O2        0.230808579848998    0.838779092414871    0.210768044922631  0.0000
  O3     O3        0.306414599969736    0.463911436864905    0.672826426549268  0.0000
  O3     O3        0.719428547079318    0.505397697888896    0.364125921365402  0.0000
  O2     O2        0.259065896839846    0.130975945597706    0.691269707704211  0.0000
  O3     O3        0.808471834037592    0.165793837739110    0.340310230726858  0.0000
  O2     O2        0.789589370566468    0.831718968278903    0.356433559115817  0.0000
  O3     O3        0.221144091540866    0.798755777865976    0.699802700137128  0.0000
  O2     O2        0.990308472335940    0.992607554826864    0.550882096346311  0.0000
  O2     O2        0.031923026455298    0.977006908827002    0.310404855768579  0.0000
  O3     O3        0.071975835287949    0.001544580972150    0.814725459425622  0.0000
  O3     O3        0.971763611978801    0.971254032845208    0.046427909471158  0.0000
