data_c00030.vasp
_audit_creation_method             Generated by GULP
_audit_author_name                 Salvador R. G. Balestra
_symmetry_space_group_name_H-M     'P 1             '
_symmetry_Int_Tables_number        1

loop_
_symmetry_equiv_pos_site_id
_symmetry_equiv_pos_as_xyz
_cell_length_a                        9.1789
_cell_length_b                        7.6710
_cell_length_c                       10.1982
_cell_angle_alpha                   87.4459
_cell_angle_beta                   111.6777
_cell_angle_gamma                   87.3237

loop_
_atom_site_label
_atom_site_type_symbol
_atom_site_fract_x
_atom_site_fract_y
_atom_site_fract_z
_atom_site_charge
  Ge     Ge        0.313819999999964    0.296860000000038    0.309830000000034  0.0000
  Ge     Ge        0.761397004196297    0.610718482822012    0.730467923197996  0.0000
  Ge     Ge        0.355268483713893    0.269628442673532    0.637596238734649  0.0000
  Ge     Ge        0.168742093122890    0.959273231923092    0.698069912341984  0.0000
  Si     Si        0.708938204106663    0.227112118672830    0.707773291303005  0.0000
  Si     Si        0.341462281574422    0.708493844495791    0.334403393520228  0.0000
  Si     Si        0.665247563799942    0.277693312603426    0.386062026737335  0.0000
  Si     Si        0.700852842622359    0.664257381874321    0.401471387284453  0.0000
  Si     Si        0.392225439164241    0.671293483899976    0.652374664647682  0.0000
  Si     Si        0.901081978948906    0.961156474867122    0.384802473586526  0.0000
  Si     Si        0.088651876736427    0.011915305644750    0.179732816388464  0.0000
  Si     Si        0.950754104826409    0.919948052102475    0.867916519763003  0.0000
  O1     O1        0.311892616293417    0.213279212558409    0.467199897149392  0.0000
  O2     O2        0.642294440578747    0.278352659512223    0.537233081539715  0.0000
  O3     O3        0.766379434694021    0.678958099543534    0.569166708689280  0.0000
  O2     O2        0.354621096463891    0.748863231377093    0.491801488499310  0.0000
  O3     O3        0.275345873033102    0.521616036518766    0.293637518911467  0.0000
  O3     O3        0.810202694196451    0.388144610969342    0.774768698476047  0.0000
  O3     O3        0.488983821010814    0.256746857471662    0.281505524147950  0.0000
  O3     O3        0.552505998474118    0.212177910702384    0.740083703793800  0.0000
  O3     O3        0.577196992118759    0.639226899249121    0.735145457512134  0.0000
  O2     O2        0.514901126056643    0.716851342353749    0.329998901683657  0.0000
  O3     O3        0.163719828302821    0.196032112812813    0.185486000335295  0.0000
  O2     O2        0.814083839551402    0.045439349647205    0.747293439977844  0.0000
  O3     O3        0.894435160550850    0.725436828148924    0.856102770842387  0.0000
  O2     O2        0.230020986904970    0.860756460418201    0.227214643472321  0.0000
  O3     O3        0.312278431194189    0.489061849765837    0.644756461178803  0.0000
  O2     O2        0.729534916909793    0.465856713703556    0.362581040971711  0.0000
  O1     O1        0.233163044783389    0.163554514730192    0.701070310850372  0.0000
  O2     O2        0.792092407921169    0.132992450646473    0.381394828069074  0.0000
  O2     O2        0.793455156642056    0.796184717040464    0.337433395446788  0.0000
  O3     O3        0.326965757194932    0.810297562963012    0.730654957729481  0.0000
  O3     O3        0.024864107738244    0.916550141952471    0.540359066930224  0.0000
  O2     O2        0.984318161007648    0.998874104147124    0.275279767008882  0.0000
  O3     O3        0.108133484715278    0.928537134625875    0.837532337895354  0.0000
  O2     O2        0.973166801656352    0.987556463878281    0.020260564571434  0.0000
