data_c00094.vasp
_audit_creation_method             Generated by GULP
_audit_author_name                 Salvador R. G. Balestra
_symmetry_space_group_name_H-M     'P 1             '
_symmetry_Int_Tables_number        1

loop_
_symmetry_equiv_pos_site_id
_symmetry_equiv_pos_as_xyz
_cell_length_a                        9.1587
_cell_length_b                        7.7452
_cell_length_c                       10.3748
_cell_angle_alpha                   88.4334
_cell_angle_beta                   108.4241
_cell_angle_gamma                   90.5250

loop_
_atom_site_label
_atom_site_type_symbol
_atom_site_fract_x
_atom_site_fract_y
_atom_site_fract_z
_atom_site_charge
  Ge     Ge        0.313819999999964    0.296860000000038    0.309830000000034  0.0000
  Ge     Ge        0.685030120708501    0.303029419496052    0.394921861196918  0.0000
  Ge     Ge        0.137144100417251    0.975489047913949    0.681226257743693  0.0000
  Ge     Ge        0.917815116087208    0.976782721227110    0.871186815494301  0.0000
  Si     Si        0.701101635454566    0.281379248016596    0.705379565612185  0.0000
  Si     Si        0.695790444762785    0.682105695559178    0.709407640533455  0.0000
  Si     Si        0.320437473957916    0.699453938411463    0.322564704261308  0.0000
  Si     Si        0.346282796593063    0.275848361303332    0.623808254568570  0.0000
  Si     Si        0.680004178958729    0.703850759591230    0.406383191319937  0.0000
  Si     Si        0.341261073304973    0.676845161466664    0.626206330772530  0.0000
  Si     Si        0.893209822120054    0.000523367507328    0.381437754980073  0.0000
  Si     Si        0.096561193370878    0.992886498688878    0.187337628780851  0.0000
  O3     O3        0.312644707344863    0.223882842503904    0.468688997933919  0.0000
  O3     O3        0.709875221241488    0.231260651691722    0.559563059749530  0.0000
  O2     O2        0.708587618742678    0.747321418614587    0.564009772255497  0.0000
  O2     O2        0.310627978875972    0.743454696826064    0.471024823858143  0.0000
  O3     O3        0.255848944015482    0.510454034631888    0.281000166099550  0.0000
  O2     O2        0.746492508270895    0.482235639804598    0.732028268338545  0.0000
  O1     O1        0.496335674368241    0.279139662767766    0.300283324569630  0.0000
  O2     O2        0.526582319122369    0.251853418312796    0.705653007274410  0.0000
  O2     O2        0.520815010538256    0.702611307728014    0.709984431978601  0.0000
  O2     O2        0.497805326697625    0.705819649413735    0.325598173583060  0.0000
  O3     O3        0.183210566382743    0.174616148272413    0.191273233085038  0.0000
  O3     O3        0.815724587960945    0.165941386016511    0.820656596764019  0.0000
  O3     O3        0.805019226962119    0.795009289232476    0.824421524913729  0.0000
  O2     O2        0.226213695958382    0.843044957958053    0.215329321716875  0.0000
  O2     O2        0.296915470868874    0.475215617716215    0.626841332600829  0.0000
  O3     O3        0.742575495510260    0.516105738638090    0.392841810344889  0.0000
  O3     O3        0.251314551243195    0.156162904280888    0.694396277942299  0.0000
  O3     O3        0.806136908919932    0.181084890125075    0.336202393625091  0.0000
  O2     O2        0.765208068033508    0.847902249387103    0.342116889106071  0.0000
  O3     O3        0.238195039547755    0.785806012324719    0.690667999535682  0.0000
  O3     O3        0.975787111943387    0.990377978860226    0.542235035062177  0.0000
  O2     O2        0.018612860710263    0.977592151763500    0.306230857190549  0.0000
  O1     O1        0.077203091929758    0.971233316926641    0.821515335550957  0.0000
  O3     O3        0.968739370609795    0.969896651276539    0.045890170211089  0.0000
