data_c00043.vasp
_audit_creation_method             Generated by GULP
_audit_author_name                 Salvador R. G. Balestra
_symmetry_space_group_name_H-M     'P 1             '
_symmetry_Int_Tables_number        1

loop_
_symmetry_equiv_pos_site_id
_symmetry_equiv_pos_as_xyz
_cell_length_a                        9.0589
_cell_length_b                        7.7212
_cell_length_c                       10.1048
_cell_angle_alpha                   87.7865
_cell_angle_beta                   108.1817
_cell_angle_gamma                   90.7412

loop_
_atom_site_label
_atom_site_type_symbol
_atom_site_fract_x
_atom_site_fract_y
_atom_site_fract_z
_atom_site_charge
  Ge     Ge        0.313819999999964    0.296860000000038    0.309830000000034  0.0000
  Ge     Ge        0.275581151426768    0.717387041176019    0.303782967970826  0.0000
  Ge     Ge        0.334680636369758    0.289891172968308    0.633771537689833  0.0000
  Ge     Ge        0.649646444445600    0.753624974387119    0.383711939134150  0.0000
  Si     Si        0.683106687117391    0.344583503281645    0.707253779017043  0.0000
  Si     Si        0.673575943672853    0.729745701223520    0.707604240608039  0.0000
  Si     Si        0.663598800041658    0.357666227140154    0.389415297984107  0.0000
  Si     Si        0.311981593839763    0.698651624936689    0.623761062052139  0.0000
  Si     Si        0.882597750313451    0.050809258142119    0.379675830658236  0.0000
  Si     Si        0.119610182645019    0.989141978896267    0.683480065211477  0.0000
  Si     Si        0.065947159539895    0.029165983575717    0.164436194094905  0.0000
  Si     Si        0.888556018034609    0.025466782402247    0.848796374208874  0.0000
  O1     O1        0.312799485064968    0.218478817944052    0.470900850538161  0.0000
  O2     O2        0.626981847341597    0.361349314494775    0.538007854292980  0.0000
  O3     O3        0.685540379747144    0.791166647753937    0.558585137573769  0.0000
  O3     O3        0.277185879469352    0.774625557842269    0.467951706689145  0.0000
  O1     O1        0.239394477848466    0.502322557755445    0.279569983641653  0.0000
  O2     O2        0.745899599220641    0.536946839009889    0.758323538211040  0.0000
  O3     O3        0.498047710124663    0.301107483724659    0.288529375565046  0.0000
  O3     O3        0.527511357176608    0.288679707788164    0.740196825116206  0.0000
  O2     O2        0.495408160957221    0.718509338258291    0.704173471284915  0.0000
  O1     O1        0.456742744934099    0.770178206609336    0.293253524510457  0.0000
  O3     O3        0.211320691379648    0.156404517239026    0.185454591128703  0.0000
  O2     O2        0.818531839088431    0.205643689977947    0.769549606800124  0.0000
  O2     O2        0.762449529047237    0.871234293119953    0.817251865761323  0.0000
  O3     O3        0.126594408471496    0.833408020108779    0.187118503165219  0.0000
  O3     O3        0.263620783099232    0.499260551845311    0.622613970223457  0.0000
  O3     O3        0.711753703229615    0.550149597193123    0.357149419164262  0.0000
  O3     O3        0.228460911817116    0.156175451368687    0.709880258665821  0.0000
  O2     O2        0.802133949586691    0.231225582133698    0.392321980460449  0.0000
  O3     O3        0.754990777304753    0.905227266408655    0.321517787738156  0.0000
  O2     O2        0.220269967348136    0.813840373021767    0.702031683397913  0.0000
  O2     O2        0.992127821408570    0.993458518557995    0.531926188628074  0.0000
  O2     O2        0.982798621823354    0.085655348680943    0.276290599479355  0.0000
  O2     O2        0.035342237433730    0.974448483133409    0.801749480469958  0.0000
  O2     O2        0.941376581982102    0.054865575828767    0.012441892227794  0.0000
