data_c00059.vasp
_audit_creation_method             Generated by GULP
_audit_author_name                 Salvador R. G. Balestra
_symmetry_space_group_name_H-M     'P 1             '
_symmetry_Int_Tables_number        1

loop_
_symmetry_equiv_pos_site_id
_symmetry_equiv_pos_as_xyz
_cell_length_a                        9.0192
_cell_length_b                        7.6685
_cell_length_c                       10.1690
_cell_angle_alpha                   89.2645
_cell_angle_beta                   105.2038
_cell_angle_gamma                   91.8882

loop_
_atom_site_label
_atom_site_type_symbol
_atom_site_fract_x
_atom_site_fract_y
_atom_site_fract_z
_atom_site_charge
  Ge     Ge        0.313819999999964    0.296860000000038    0.309830000000034  0.0000
  Ge     Ge        0.274807703550052    0.710059053300805    0.295768933313172  0.0000
  Ge     Ge        0.062199250198225    0.014244785142809    0.168016674729081  0.0000
  Ge     Ge        0.861293776183301    0.053460293463422    0.855820392254190  0.0000
  Si     Si        0.661774878252658    0.362956817094339    0.706110236117874  0.0000
  Si     Si        0.629010388364744    0.757548531023478    0.694082482989441  0.0000
  Si     Si        0.312410199487628    0.308254471948128    0.622249621354809  0.0000
  Si     Si        0.668910442220365    0.364166957022360    0.398197983595809  0.0000
  Si     Si        0.637004745044860    0.761263796637397    0.387041013772753  0.0000
  Si     Si        0.277451463975962    0.711522134719440    0.607782699083704  0.0000
  Si     Si        0.873692482581110    0.058986661509328    0.390403136834045  0.0000
  Si     Si        0.093098945389178    0.011605390923365    0.679613693344116  0.0000
  O3     O3        0.304860478943616    0.240629733852453    0.473234771278767  0.0000
  O2     O2        0.666878210659458    0.321169989947991    0.553070424119248  0.0000
  O2     O2        0.639304396824614    0.805933759334707    0.542215380244408  0.0000
  O3     O3        0.254532937098965    0.771583733149516    0.453782008625611  0.0000
  O1     O1        0.234427866118408    0.495360023332297    0.268053999151407  0.0000
  O2     O2        0.699044509795514    0.567769970646632    0.737502572049350  0.0000
  O3     O3        0.503616854618026    0.314181309335568    0.303216902145146  0.0000
  O2     O2        0.488409858535779    0.313947668325822    0.715289475445898  0.0000
  O2     O2        0.451145970926435    0.752872973977675    0.695680553684502  0.0000
  O3     O3        0.464171591340711    0.764508386682048    0.295208398040373  0.0000
  O1     O1        0.221148591702595    0.152407844884013    0.190084307600982  0.0000
  O3     O3        0.788262353467208    0.257033740316372    0.811123857189143  0.0000
  O3     O3        0.718792532692642    0.897493488215764    0.800032732295529  0.0000
  O1     O1        0.139588507989001    0.813082859387413    0.173778771654810  0.0000
  O2     O2        0.242358947540469    0.502507596262835    0.614105901872311  0.0000
  O2     O2        0.706179621832744    0.569808867327060    0.379524664821728  0.0000
  O2     O2        0.215852173796810    0.172149614912315    0.691309056950516  0.0000
  O2     O2        0.797161684745805    0.248539546050051    0.360430520681256  0.0000
  O2     O2        0.744716868913305    0.904780136801683    0.336775518486246  0.0000
  O2     O2        0.165614993963651    0.822972148982229    0.672671330591189  0.0000
  O2     O2        0.944751564864176    0.036644659310000    0.552637565375216  0.0000
  O3     O3        0.004198760724399    0.053420001054024    0.314806087464209  0.0000
  O3     O3        0.029576581252915    0.014523318089254    0.811895731492960  0.0000
  O1     O1        0.913731059257770    0.047729177934021    0.030202904167453  0.0000
