data_c00068.vasp
_audit_creation_method             Generated by GULP
_audit_author_name                 Salvador R. G. Balestra
_symmetry_space_group_name_H-M     'P 1             '
_symmetry_Int_Tables_number        1

loop_
_symmetry_equiv_pos_site_id
_symmetry_equiv_pos_as_xyz
_cell_length_a                        9.1758
_cell_length_b                        7.7187
_cell_length_c                       10.1766
_cell_angle_alpha                   87.8129
_cell_angle_beta                   110.7864
_cell_angle_gamma                   87.9129

loop_
_atom_site_label
_atom_site_type_symbol
_atom_site_fract_x
_atom_site_fract_y
_atom_site_fract_z
_atom_site_charge
  Ge     Ge        0.313819999999964    0.296860000000038    0.309830000000034  0.0000
  Ge     Ge        0.353748035364555    0.282997494130961    0.637505559056219  0.0000
  Ge     Ge        0.687945343575061    0.684709004864654    0.391975910966061  0.0000
  Ge     Ge        0.159900937759406    0.973166140363237    0.692958840347194  0.0000
  Si     Si        0.704463950863835    0.272953292032065    0.704419761627801  0.0000
  Si     Si        0.739827627234005    0.651420208554933    0.718203048337477  0.0000
  Si     Si        0.321195123209971    0.711573280190205    0.321243125776951  0.0000
  Si     Si        0.663222695128166    0.293155585602145    0.384404157124397  0.0000
  Si     Si        0.375248377778623    0.687487301349812    0.638842189331167  0.0000
  Si     Si        0.898654947180569    0.981406490234468    0.381485668123652  0.0000
  Si     Si        0.080962271013716    0.018771367059183    0.172607750115695  0.0000
  Si     Si        0.932171404792654    0.955173303886604    0.857028512790960  0.0000
  O1     O1        0.310912674382660    0.219521231656187    0.468578903691226  0.0000
  O2     O2        0.635676715872943    0.314310959816071    0.534162068852023  0.0000
  O3     O3        0.756674685298981    0.707314233826613    0.571692299520712  0.0000
  O2     O2        0.327035211523209    0.758145108504047    0.476469999547893  0.0000
  O3     O3        0.269592464254367    0.517847032042434    0.289110720887270  0.0000
  O2     O2        0.792865002593488    0.447712726026634    0.767144715887744  0.0000
  O3     O3        0.490183525040707    0.257770643758411    0.283601349508098  0.0000
  O3     O3        0.551285498959698    0.239716900182571    0.739400845793767  0.0000
  O2     O2        0.562101073314694    0.671100527393877    0.708373717707158  0.0000
  O3     O3        0.490728258616527    0.735826538307482    0.313948416075242  0.0000
  O3     O3        0.177347880618056    0.188099240977939    0.181670301229522  0.0000
  O2     O2        0.825979628620833    0.108532688633159    0.748027368669128  0.0000
  O2     O2        0.845957945481159    0.774406659628468    0.834248256948956  0.0000
  O2     O2        0.196594253576601    0.847092955177644    0.211612647225021  0.0000
  O3     O3        0.306935161177679    0.500532432082779    0.641837867874751  0.0000
  O3     O3        0.721682945966232    0.475781350621088    0.349275569365876  0.0000
  O1     O1        0.234221102931276    0.173071273567475    0.703560357530200  0.0000
  O2     O2        0.791003314527538    0.144451565878247    0.394569699500500  0.0000
  O3     O3        0.790661088403761    0.822400238265392    0.324981806902622  0.0000
  O3     O3        0.314249653347689    0.822036706294391    0.722966454046854  0.0000
  O3     O3        0.022011055855328    0.929865277573564    0.533963313248656  0.0000
  O2     O2        0.980941599095105    0.036687906537547    0.273079580870803  0.0000
  O3     O3        0.091055100930125    0.937448411315061    0.828203812781578  0.0000
  O2     O2        0.959814948138659    0.006975745577981    0.014602657836150  0.0000
