data_c00012.vasp
_audit_creation_method             Generated by GULP
_audit_author_name                 Salvador R. G. Balestra
_symmetry_space_group_name_H-M     'P 1             '
_symmetry_Int_Tables_number        1

loop_
_symmetry_equiv_pos_site_id
_symmetry_equiv_pos_as_xyz
_cell_length_a                        8.9948
_cell_length_b                        7.6353
_cell_length_c                       10.2777
_cell_angle_alpha                   90.5927
_cell_angle_beta                   107.4081
_cell_angle_gamma                   87.8364

loop_
_atom_site_label
_atom_site_type_symbol
_atom_site_fract_x
_atom_site_fract_y
_atom_site_fract_z
_atom_site_charge
  Ge     Ge        0.313819999999964    0.296860000000038    0.309830000000034  0.0000
  Ge     Ge        0.691909451706744    0.232111602202933    0.715020306560501  0.0000
  Ge     Ge        0.320192054239805    0.304989082772074    0.628919890078210  0.0000
  Ge     Ge        0.368753589044597    0.712875871536020    0.640158186458669  0.0000
  Si     Si        0.729337148774372    0.643281315185144    0.722006071571128  0.0000
  Si     Si        0.356608275618204    0.694050768919825    0.326167992930206  0.0000
  Si     Si        0.685712707834990    0.237674743770303    0.405119733655439  0.0000
  Si     Si        0.718146747008387    0.637840218611766    0.416905793330571  0.0000
  Si     Si        0.909307700150931    0.940725626829340    0.361321193452413  0.0000
  Si     Si        0.124382222042686    0.002766711409844    0.660787337831475  0.0000
  Si     Si        0.119169102316570    0.981992911193435    0.169819013139549  0.0000
  Si     Si        0.927691504811746    0.941576854647010    0.863262466181840  0.0000
  O1     O1        0.259209857869342    0.298303942427118    0.454083781640761  0.0000
  O3     O3        0.743873167272429    0.205532738378425    0.566866609804914  0.0000
  O2     O2        0.776271294580444    0.642736246330266    0.581173533734890  0.0000
  O3     O3        0.309221616059389    0.697963105654622    0.464290805727143  0.0000
  O3     O3        0.312066191942421    0.509661003778117    0.251965094601499  0.0000
  O3     O3        0.719871558973212    0.448196524705430    0.769656501383291  0.0000
  O3     O3        0.503090298566162    0.210852646748075    0.346012895811624  0.0000
  O1     O1        0.498863497216722    0.195495433455765    0.680850605315029  0.0000
  O3     O3        0.565635569718692    0.748916418610652    0.695244925605076  0.0000
  O2     O2        0.542512633295728    0.717584879852556    0.362674974882800  0.0000
  O3     O3        0.179605726600640    0.176960951031087    0.189994537495448  0.0000
  O3     O3        0.796638673414387    0.094518498619749    0.844624339928320  0.0000
  O2     O2        0.855881213573412    0.749579719393209    0.837147223262710  0.0000
  O2     O2        0.270976776143383    0.855645145331466    0.231688676400767  0.0000
  O1     O1        0.333574229502871    0.511121789918764    0.694263874755980  0.0000
  O2     O2        0.724291454396092    0.435714101065381    0.370259515179422  0.0000
  O3     O3        0.181575954711546    0.198488587677436    0.681196874233075  0.0000
  O2     O2        0.781509242280270    0.099994841620673    0.338160457324261  0.0000
  O2     O2        0.829102041658704    0.753509677420202    0.357684859489640  0.0000
  O3     O3        0.276203630671562    0.873495875460325    0.706604985265490  0.0000
  O2     O2        0.045654394248424    0.957568241235845    0.501848317744366  0.0000
  O2     O2        0.983830198458774    0.944990502974092    0.238004245851842  0.0000
  O2     O2        0.008001326081258    0.977903368542007    0.747227221088773  0.0000
  O2     O2        0.052404964702336    0.942526605317977    0.010331524092409  0.0000
