data_c00040.vasp
_audit_creation_method             Generated by GULP
_audit_author_name                 Salvador R. G. Balestra
_symmetry_space_group_name_H-M     'P 1             '
_symmetry_Int_Tables_number        1

loop_
_symmetry_equiv_pos_site_id
_symmetry_equiv_pos_as_xyz
_cell_length_a                        9.1243
_cell_length_b                        7.6982
_cell_length_c                       10.0786
_cell_angle_alpha                   88.1989
_cell_angle_beta                   107.3451
_cell_angle_gamma                   88.7476

loop_
_atom_site_label
_atom_site_type_symbol
_atom_site_fract_x
_atom_site_fract_y
_atom_site_fract_z
_atom_site_charge
  Ge     Ge        0.313819999999964    0.296860000000038    0.309830000000034  0.0000
  Ge     Ge        0.719100929561852    0.627545849893138    0.730885004237583  0.0000
  Ge     Ge        0.906551239257899    0.959426778771590    0.402385974578544  0.0000
  Ge     Ge        0.929804164751046    0.928236837979562    0.885933004609370  0.0000
  Si     Si        0.686821432173887    0.222843877034847    0.708270294407182  0.0000
  Si     Si        0.346628195991506    0.695080995024207    0.329176579986097  0.0000
  Si     Si        0.333633138505380    0.272325106047006    0.632316195180961  0.0000
  Si     Si        0.672922081141683    0.256723018323265    0.395851456795064  0.0000
  Si     Si        0.699349947033430    0.654966646285747    0.412592650066880  0.0000
  Si     Si        0.359977366297367    0.668216121381382    0.647024861163078  0.0000
  Si     Si        0.145388426690908    0.968239772354674    0.701781690597836  0.0000
  Si     Si        0.113364266640320    0.991080435222107    0.198748523517212  0.0000
  O3     O3        0.300148277368278    0.235285186697591    0.471699529207798  0.0000
  O2     O2        0.682905881468983    0.183017602167347    0.550753760318161  0.0000
  O3     O3        0.727023212175365    0.706440939932350    0.571078890939961  0.0000
  O2     O2        0.349023907714488    0.719402247899072    0.488164442069470  0.0000
  O3     O3        0.269191395288443    0.515619814250452    0.276421418774606  0.0000
  O3     O3        0.761201047419572    0.406723075012654    0.751197229021072  0.0000
  O3     O3        0.497979551514123    0.258173703585986    0.301613530563241  0.0000
  O2     O2        0.511982349723473    0.232212753469458    0.714692714842244  0.0000
  O3     O3        0.534722985119889    0.670423990235312    0.740769115790507  0.0000
  O2     O2        0.521470947155667    0.693124814499457    0.324492884452758  0.0000
  O3     O3        0.182671051141668    0.179840703941008    0.190207291541340  0.0000
  O3     O3        0.777125643103755    0.069907730148788    0.809443150251232  0.0000
  O1     O1        0.857476337868465    0.725406555210277    0.855432357942712  0.0000
  O2     O2        0.256162773981589    0.851079433706075    0.226985319107961  0.0000
  O2     O2        0.293896512909240    0.474438598399545    0.652254860677669  0.0000
  O2     O2        0.737898706730848    0.451031610930108    0.405741432101662  0.0000
  O2     O2        0.228825488911047    0.149333748611455    0.695372754576334  0.0000
  O3     O3        0.779371817614450    0.133883618001800    0.337999042663307  0.0000
  O3     O3        0.808909423581124    0.770212975589419    0.352435325642676  0.0000
  O2     O2        0.255646205260881    0.802668256353038    0.699947748702854  0.0000
  O3     O3        0.985818633010801    0.962078105390088    0.580349914682874  0.0000
  O3     O3        0.054051615489171    0.971831454227958    0.332584268711883  0.0000
  O3     O3        0.096145417206634    0.959322638340338    0.841358349097976  0.0000
  O3     O3        0.977883343136964    0.957208150521632    0.062825996301276  0.0000
