data_c00060.vasp
_audit_creation_method             Generated by GULP
_audit_author_name                 Salvador R. G. Balestra
_symmetry_space_group_name_H-M     'P 1             '
_symmetry_Int_Tables_number        1

loop_
_symmetry_equiv_pos_site_id
_symmetry_equiv_pos_as_xyz
_cell_length_a                        9.1017
_cell_length_b                        7.6022
_cell_length_c                       10.1442
_cell_angle_alpha                   89.4295
_cell_angle_beta                   109.9725
_cell_angle_gamma                   86.4679

loop_
_atom_site_label
_atom_site_type_symbol
_atom_site_fract_x
_atom_site_fract_y
_atom_site_fract_z
_atom_site_charge
  Ge     Ge        0.313819999999964    0.296860000000038    0.309830000000034  0.0000
  Ge     Ge        0.363059373549521    0.275889883958448    0.649258072592332  0.0000
  Ge     Ge        0.686754511688977    0.214205483599236    0.399782280101162  0.0000
  Ge     Ge        0.739673581735270    0.622309448523344    0.414625287186577  0.0000
  Si     Si        0.725250590763410    0.217002445270055    0.723685098056426  0.0000
  Si     Si        0.756750378921903    0.625794687275341    0.729408136714671  0.0000
  Si     Si        0.379226089513604    0.678910279342016    0.328370793962101  0.0000
  Si     Si        0.407661090318115    0.666759169975477    0.649106444230986  0.0000
  Si     Si        0.917897355604290    0.924991024944152    0.357869767607045  0.0000
  Si     Si        0.162580167263336    0.974233382004850    0.660365127528470  0.0000
  Si     Si        0.131124724585438    0.980480594558866    0.180822778370496  0.0000
  Si     Si        0.975838498574219    0.909677585428739    0.864494291840037  0.0000
  O1     O1        0.314083984797409    0.241579845112685    0.473970230858473  0.0000
  O3     O3        0.699190302099435    0.154073591399875    0.568060729270218  0.0000
  O3     O3        0.761967509555963    0.692131236962884    0.581473395882080  0.0000
  O2     O2        0.417936644926044    0.633116885802615    0.494812902544175  0.0000
  O3     O3        0.275514286989342    0.519786529548089    0.258410797794706  0.0000
  O2     O2        0.789757998091823    0.413654518230224    0.744346836738495  0.0000
  O1     O1        0.495366585394631    0.251360677298609    0.298816257248253  0.0000
  O3     O3        0.559022262654642    0.219966505140791    0.744639792616702  0.0000
  O2     O2        0.589100062423436    0.679607318075287    0.747899173890072  0.0000
  O3     O3        0.546127740963490    0.676162022475664    0.308297736800000  0.0000
  O3     O3        0.170899138109996    0.181450156194574    0.191017504309633  0.0000
  O2     O2        0.854411576458262    0.081527050641493    0.831431103437398  0.0000
  O2     O2        0.887821730203769    0.728768308386941    0.846325356966517  0.0000
  O2     O2        0.288560566343716    0.869143020372813    0.280633276914223  0.0000
  O3     O3        0.333603688227620    0.496150332836082    0.685409733415169  0.0000
  O1     O1        0.782885730183047    0.402995757320007    0.406352831524093  0.0000
  O3     O3        0.236463213872943    0.158574823554977    0.704847069629880  0.0000
  O3     O3        0.758051943094694    0.044224507849075    0.323626773645351  0.0000
  O3     O3        0.878383920240009    0.724552585460991    0.365413458018711  0.0000
  O2     O2        0.308126899569876    0.842903626416966    0.658226614220912  0.0000
  O2     O2        0.033345096255274    0.992121818530358    0.505866373112901  0.0000
  O2     O2        0.988748604312601    0.949171181863629    0.235460442862788  0.0000
  O2     O2        0.085920632156820    0.906838279001128    0.769932951561444  0.0000
  O2     O2        0.088699753118860    0.913110304303326    0.024342278313765  0.0000
