data_c00069.vasp
_audit_creation_method             Generated by GULP
_audit_author_name                 Salvador R. G. Balestra
_symmetry_space_group_name_H-M     'P 1             '
_symmetry_Int_Tables_number        1

loop_
_symmetry_equiv_pos_site_id
_symmetry_equiv_pos_as_xyz
_cell_length_a                        9.1637
_cell_length_b                        7.6187
_cell_length_c                       10.0174
_cell_angle_alpha                   87.4527
_cell_angle_beta                   109.9879
_cell_angle_gamma                   86.7394

loop_
_atom_site_label
_atom_site_type_symbol
_atom_site_fract_x
_atom_site_fract_y
_atom_site_fract_z
_atom_site_charge
  Ge     Ge        0.313819999999964    0.296860000000038    0.309830000000034  0.0000
  Ge     Ge        0.363068876316241    0.251889720796141    0.651689874437351  0.0000
  Ge     Ge        0.724835234265395    0.625612013892184    0.415428633504920  0.0000
  Ge     Ge        0.117855739572439    0.984694008161296    0.176561643323762  0.0000
  Si     Si        0.723597388837717    0.201028674831941    0.728463235919816  0.0000
  Si     Si        0.756572290731272    0.603240991022555    0.741416356729472  0.0000
  Si     Si        0.371072605460422    0.678864646098278    0.337962470509664  0.0000
  Si     Si        0.678160686571906    0.224915438448202    0.401374645870384  0.0000
  Si     Si        0.410097889398981    0.639379836799574    0.661995572581401  0.0000
  Si     Si        0.903897156231101    0.933232186497027    0.353514813864948  0.0000
  Si     Si        0.162684718377484    0.948399281315326    0.654447431920175  0.0000
  Si     Si        0.974983799509007    0.885141263282077    0.861152981116193  0.0000
  O1     O1        0.306243409126363    0.230254592942301    0.472671361368210  0.0000
  O2     O2        0.692724824409584    0.171458497216625    0.563423554372789  0.0000
  O3     O3        0.760537253256960    0.672145274114523    0.589946958962798  0.0000
  O2     O2        0.419464351615970    0.606296032244318    0.505390582319555  0.0000
  O3     O3        0.274715900047378    0.521071426579756    0.259639226226904  0.0000
  O2     O2        0.791450116404868    0.391860988980985    0.767164968870923  0.0000
  O3     O3        0.499543099396291    0.249332966352005    0.305130093563869  0.0000
  O3     O3        0.558184013323837    0.189617814060908    0.746317695204112  0.0000
  O2     O2        0.590203574868832    0.655283239750971    0.760102241607463  0.0000
  O3     O3        0.534056549220273    0.692006535406219    0.312810869379446  0.0000
  O1     O1        0.175711075140482    0.193032134298365    0.183604038286556  0.0000
  O2     O2        0.851597726082866    0.055984731752898    0.829400786486058  0.0000
  O2     O2        0.887651433803354    0.705665551336925    0.855968518307687  0.0000
  O3     O3        0.274237069851151    0.863253030975939    0.304111665883224  0.0000
  O3     O3        0.338761948427172    0.465771283715338    0.699566016595125  0.0000
  O3     O3        0.761443776065860    0.404104586446492    0.398655334484686  0.0000
  O3     O3        0.236681386029741    0.128752304038725    0.705168562073829  0.0000
  O2     O2        0.757777618589492    0.065771359392561    0.344977224765225  0.0000
  O3     O3        0.855039008126780    0.735860847836722    0.359624908745834  0.0000
  O2     O2        0.310771739157785    0.813279477915324    0.670845478334079  0.0000
  O2     O2        0.053681422786446    0.967216276876461    0.489835061699422  0.0000
  O3     O3        0.949680778601454    0.968077676743747    0.215401110485714  0.0000
  O2     O2        0.065845347655655    0.881297509087551    0.749641286635247  0.0000
  O3     O3        0.097006796333490    0.896895598678842    0.016225494333049  0.0000
