data_c00004.vasp
_audit_creation_method             Generated by GULP
_audit_author_name                 Salvador R. G. Balestra
_symmetry_space_group_name_H-M     'P 1             '
_symmetry_Int_Tables_number        1

loop_
_symmetry_equiv_pos_site_id
_symmetry_equiv_pos_as_xyz
_cell_length_a                        9.0790
_cell_length_b                        7.6598
_cell_length_c                       10.1054
_cell_angle_alpha                   88.6413
_cell_angle_beta                   108.6023
_cell_angle_gamma                   87.3502

loop_
_atom_site_label
_atom_site_type_symbol
_atom_site_fract_x
_atom_site_fract_y
_atom_site_fract_z
_atom_site_charge
  Ge     Ge        0.313819999999964    0.296860000000038    0.309830000000034  0.0000
  Ge     Ge        0.704256509541616    0.202951096996688    0.715857804737676  0.0000
  Ge     Ge        0.743678612026070    0.618508312326282    0.735582027737091  0.0000
  Ge     Ge        0.714483493321091    0.642327060509436    0.410848906463712  0.0000
  Si     Si        0.360598889723474    0.687161262377231    0.332606647792767  0.0000
  Si     Si        0.342372771441485    0.266336194846748    0.636328246489455  0.0000
  Si     Si        0.676905612646077    0.234666984227934    0.396576539741533  0.0000
  Si     Si        0.386873824143731    0.654615839608912    0.653951297267884  0.0000
  Si     Si        0.900486476817435    0.944607926411358    0.347515638431110  0.0000
  Si     Si        0.144196398929801    0.962738368626354    0.651767659528200  0.0000
  Si     Si        0.120250266857256    0.989869896985528    0.174405779047444  0.0000
  Si     Si        0.956689236637477    0.906734625688499    0.866092449357535  0.0000
  O3     O3        0.313939765053991    0.234847528207908    0.474085878966332  0.0000
  O3     O3        0.685704996350240    0.151683551203772    0.546344723433524  0.0000
  O1     O1        0.748032825649381    0.704064379503900    0.578466701553853  0.0000
  O2     O2        0.410572192375678    0.668750675740233    0.502000769280508  0.0000
  O3     O3        0.266324042570207    0.519134129336202    0.272712386105723  0.0000
  O1     O1        0.786963311606746    0.398838680385335    0.753018176164085  0.0000
  O3     O3        0.499164387426005    0.263081878657924    0.299570296617980  0.0000
  O3     O3        0.518136711403538    0.215008491783323    0.727509313704185  0.0000
  O3     O3        0.561285204814050    0.656576397292435    0.757430886777433  0.0000
  O3     O3        0.523817824911065    0.687932695535533    0.304496856532913  0.0000
  O3     O3        0.176827001483284    0.184788170874397    0.188494806254519  0.0000
  O3     O3        0.809035840098864    0.043576396511891    0.833759648285487  0.0000
  O3     O3        0.890536128801672    0.717262920788624    0.860326753809451  0.0000
  O2     O2        0.262812271176931    0.867349397420845    0.275471166980035  0.0000
  O2     O2        0.307719142572584    0.470727056215898    0.662776998707908  0.0000
  O3     O3        0.756981243982074    0.419086124784505    0.414778563661560  0.0000
  O2     O2        0.223446476623563    0.148070683665262    0.683356254728681  0.0000
  O2     O2        0.765129798850667    0.095353303984921    0.327200579824250  0.0000
  O3     O3        0.834055616092279    0.754990840159042    0.340297511551980  0.0000
  O2     O2        0.277438361248346    0.807242736397728    0.683710741718203  0.0000
  O2     O2        0.039084008259664    0.961658894163343    0.491730493887720  0.0000
  O2     O2        0.967171776612604    0.972222462504136    0.219643992488300  0.0000
  O2     O2        0.039675893847763    0.940759016600917    0.749862894418400  0.0000
  O2     O2        0.082480242936416    0.933015310890686    0.016133916939532  0.0000
