data_c00081.vasp
_audit_creation_method             Generated by GULP
_audit_author_name                 Salvador R. G. Balestra
_symmetry_space_group_name_H-M     'P 1             '
_symmetry_Int_Tables_number        1

loop_
_symmetry_equiv_pos_site_id
_symmetry_equiv_pos_as_xyz
_cell_length_a                        8.9548
_cell_length_b                        7.6526
_cell_length_c                       10.3130
_cell_angle_alpha                   86.8726
_cell_angle_beta                   107.3598
_cell_angle_gamma                   92.6069

loop_
_atom_site_label
_atom_site_type_symbol
_atom_site_fract_x
_atom_site_fract_y
_atom_site_fract_z
_atom_site_charge
  Ge     Ge        0.313819999999964    0.296860000000038    0.309830000000034  0.0000
  Ge     Ge        0.686677272816688    0.361663132014737    0.399537830205162  0.0000
  Ge     Ge        0.642986408223002    0.772358905811266    0.400640170592678  0.0000
  Ge     Ge        0.285012631437487    0.673050693909974    0.622991818949447  0.0000
  Si     Si        0.684233339120908    0.328637842514093    0.705072962742212  0.0000
  Si     Si        0.655888000851715    0.723997126014791    0.710900174965589  0.0000
  Si     Si        0.277429595254085    0.704214963116739    0.314398329524620  0.0000
  Si     Si        0.318446085062392    0.271782950463964    0.617235266271923  0.0000
  Si     Si        0.883367881143441    0.061727400052582    0.369768628431614  0.0000
  Si     Si        0.093900232767019    0.976454543572252    0.671007221886039  0.0000
  Si     Si        0.080001358681240    0.009712185876361    0.166384215945873  0.0000
  Si     Si        0.880987798261281    0.016269656456781    0.859325768093189  0.0000
  O3     O3        0.254494773268138    0.262611241488121    0.454766443795648  0.0000
  O3     O3        0.746208044003271    0.345063252653115    0.575902053597684  0.0000
  O3     O3        0.708349686498452    0.762829079244084    0.576578765548932  0.0000
  O3     O3        0.219047571591322    0.687148909319391    0.447588275793378  0.0000
  O3     O3        0.291148072496076    0.516669918967765    0.259663529368876  0.0000
  O2     O2        0.688096321060780    0.521141005580955    0.764380051921747  0.0000
  O1     O1        0.507514268156694    0.257589501663974    0.340563984720951  0.0000
  O2     O2        0.505816129269631    0.253023893092087    0.657842158484358  0.0000
  O3     O3        0.473768561382150    0.757190817001941    0.682050200837396  0.0000
  O3     O3        0.445031447666275    0.804997885955862    0.356146747660916  0.0000
  O3     O3        0.207590207636806    0.166259976818772    0.181245107711563  0.0000
  O2     O2        0.790940196275687    0.197523944362723    0.818109586725692  0.0000
  O2     O2        0.760091873190000    0.851593036724471    0.824655585066626  0.0000
  O2     O2        0.159611188048014    0.821531117204563    0.196190966511675  0.0000
  O3     O3        0.278740225628723    0.452724489418398    0.668531999932800  0.0000
  O1     O1        0.679441012299992    0.575584831451180    0.345292485022105  0.0000
  O2     O2        0.241665960709939    0.111243087817450    0.684591553277438  0.0000
  O3     O3        0.830094237873669    0.259902681948555    0.352913352336472  0.0000
  O3     O3        0.728037823468709    0.938083437295149    0.326706130985568  0.0000
  O3     O3        0.160419715577379    0.783123256562901    0.686175004044228  0.0000
  O2     O2        0.964166984646725    0.002600846019497    0.526744843771732  0.0000
  O2     O2        0.996438569824198    0.038166273181595    0.280558694455596  0.0000
  O2     O2        0.019740995212101    0.006461515616723    0.791027896349928  0.0000
  O2     O2        0.954512115548210    0.012660948564805    0.020305111937361  0.0000
