data_c00051.vasp
_audit_creation_method             Generated by GULP
_audit_author_name                 Salvador R. G. Balestra
_symmetry_space_group_name_H-M     'P 1             '
_symmetry_Int_Tables_number        1

loop_
_symmetry_equiv_pos_site_id
_symmetry_equiv_pos_as_xyz
_cell_length_a                        9.1183
_cell_length_b                        7.6845
_cell_length_c                       10.2209
_cell_angle_alpha                   92.7489
_cell_angle_beta                   109.4621
_cell_angle_gamma                   89.0810

loop_
_atom_site_label
_atom_site_type_symbol
_atom_site_fract_x
_atom_site_fract_y
_atom_site_fract_z
_atom_site_charge
  Ge     Ge        0.313819999999964    0.296860000000038    0.309830000000034  0.0000
  Ge     Ge        0.360331734969741    0.719152944397642    0.316530760946538  0.0000
  Ge     Ge        0.691037130786067    0.256782944948870    0.384578124750396  0.0000
  Ge     Ge        0.172137237649331    0.027239893983787    0.685097152526413  0.0000
  Si     Si        0.727381201651977    0.285918107129137    0.706391863480788  0.0000
  Si     Si        0.733551895670705    0.671937023672585    0.701548463995586  0.0000
  Si     Si        0.363448092847294    0.320302248494258    0.626347891875000  0.0000
  Si     Si        0.708893809731531    0.652510375658121    0.384675830805691  0.0000
  Si     Si        0.390304170085786    0.727812712088371    0.633880205096926  0.0000
  Si     Si        0.921807090508957    0.961536859151559    0.377036197876093  0.0000
  Si     Si        0.105443840093111    0.984778932634163    0.167791716453512  0.0000
  Si     Si        0.942675485458291    0.988891011603717    0.851919845033840  0.0000
  O3     O3        0.299453636032672    0.246788080000804    0.468577885534553  0.0000
  O3     O3        0.753275858747581    0.233633539267049    0.562574203256295  0.0000
  O2     O2        0.687755538072245    0.637281851198270    0.536118251531926  0.0000
  O3     O3        0.361159796338614    0.792393673795478    0.480000913028744  0.0000
  O1     O1        0.288064569823125    0.512463087857065    0.278683698392737  0.0000
  O2     O2        0.788372463942911    0.482611281056634    0.764783340341612  0.0000
  O1     O1        0.495125945768748    0.231089127292751    0.310697102027450  0.0000
  O2     O2        0.546338066985534    0.277160735000733    0.688138660270883  0.0000
  O2     O2        0.574617440167635    0.738513014686455    0.725596795733282  0.0000
  O3     O3        0.542146333094295    0.724067913905150    0.295334978090819  0.0000
  O3     O3        0.163541205878044    0.182577703414505    0.189216660782671  0.0000
  O2     O2        0.821811051724118    0.149054878586777    0.817668245797478  0.0000
  O2     O2        0.868521640204675    0.812666370010832    0.762924292151205  0.0000
  O3     O3        0.254803677121317    0.861710390883782    0.196301502679985  0.0000
  O2     O2        0.334165304682946    0.527874091221619    0.625498976543799  0.0000
  O3     O3        0.740845043450128    0.457758890935778    0.340355451616307  0.0000
  O3     O3        0.276119475165362    0.220531668477425    0.711279626726756  0.0000
  O3     O3        0.785907830565542    0.099520566855197    0.317000091949485  0.0000
  O2     O2        0.850650235661891    0.774114147454062    0.389132526309413  0.0000
  O3     O3        0.293527478907070    0.848662479028996    0.705443091340325  0.0000
  O3     O3        0.025681857174097    0.029334340968349    0.528821110579261  0.0000
  O2     O2        0.021660128980242    0.930015654123226    0.275962154074014  0.0000
  O3     O3        0.096307173924556    0.031071350770866    0.818519494420576  0.0000
  O2     O2        0.984264321008239    0.952748220290586    0.013464579008057  0.0000
