data_c00021.vasp
_audit_creation_method             Generated by GULP
_audit_author_name                 Salvador R. G. Balestra
_symmetry_space_group_name_H-M     'P 1             '
_symmetry_Int_Tables_number        1

loop_
_symmetry_equiv_pos_site_id
_symmetry_equiv_pos_as_xyz
_cell_length_a                        9.0204
_cell_length_b                        7.6622
_cell_length_c                       10.2509
_cell_angle_alpha                   89.4623
_cell_angle_beta                   106.5949
_cell_angle_gamma                   91.5308

loop_
_atom_site_label
_atom_site_type_symbol
_atom_site_fract_x
_atom_site_fract_y
_atom_site_fract_z
_atom_site_charge
  Ge     Ge        0.313819999999964    0.296860000000038    0.309830000000034  0.0000
  Ge     Ge        0.684344208552730    0.359629589428949    0.715767512924152  0.0000
  Ge     Ge        0.642354545540973    0.757983809835906    0.390103289460784  0.0000
  Ge     Ge        0.886482975473101    0.040284754742131    0.863748176618127  0.0000
  Si     Si        0.645389570049264    0.757604102069281    0.700567669487133  0.0000
  Si     Si        0.279832926604069    0.702944655224499    0.302271424538503  0.0000
  Si     Si        0.322731048763857    0.293211759669584    0.625866060053940  0.0000
  Si     Si        0.673305571402452    0.356054311311514    0.395658901733096  0.0000
  Si     Si        0.286717809881530    0.691261321680202    0.607103940647309  0.0000
  Si     Si        0.879206253583529    0.053433993091906    0.379288298051546  0.0000
  Si     Si        0.099720891838364    0.996181946827886    0.671830702310055  0.0000
  Si     Si        0.076534199919649    0.008381536398237    0.176057906060981  0.0000
  O3     O3        0.278112155119691    0.264453990306965    0.464695985825887  0.0000
  O3     O3        0.713569006606980    0.366865670336997    0.557870662337549  0.0000
  O3     O3        0.699155486043576    0.777745409553392    0.564618029401637  0.0000
  O2     O2        0.233551788070111    0.694010773103742    0.443704222028097  0.0000
  O3     O3        0.277925376445853    0.508203189231345    0.249337846512356  0.0000
  O3     O3        0.692897782542454    0.572450192510435    0.771725039716969  0.0000
  O3     O3        0.507696412073284    0.260750124631185    0.335010637008967  0.0000
  O3     O3        0.502294175543470    0.266596858846859    0.697751325710951  0.0000
  O2     O2        0.459538116225934    0.770607832351633    0.659391884985809  0.0000
  O3     O3        0.447066982732745    0.795858381338686    0.327612441793534  0.0000
  O3     O3        0.206933927284441    0.158375432604910    0.185494623032596  0.0000
  O1     O1        0.827793708109907    0.249742706788212    0.827004872773881  0.0000
  O3     O3        0.722500878814529    0.911749057857279    0.801290561229677  0.0000
  O2     O2        0.154624435056302    0.819047971682717    0.195905399583284  0.0000
  O2     O2        0.279901777935662    0.491397267728292    0.656856908537601  0.0000
  O3     O3        0.672843053059248    0.550834251124917    0.338627283146251  0.0000
  O2     O2        0.223779203716411    0.155387336499829    0.688183683222416  0.0000
  O2     O2        0.801501746654165    0.242653518881130    0.355165376235699  0.0000
  O3     O3        0.748926573100898    0.904627369293598    0.324045995048093  0.0000
  O2     O2        0.174078792445267    0.808901568725555    0.662890974337136  0.0000
  O2     O2        0.953712885575544    0.024287401183472    0.540608860838306  0.0000
  O2     O2        0.008726956413504    0.050634273505418    0.301626891500552  0.0000
  O3     O3        0.039574546497325    0.989204274711628    0.803311146118274  0.0000
  O3     O3        0.943580832086543    0.011792433173026    0.037392936784987  0.0000
