data_c00088.vasp
_audit_creation_method             Generated by GULP
_audit_author_name                 Salvador R. G. Balestra
_symmetry_space_group_name_H-M     'P 1             '
_symmetry_Int_Tables_number        1

loop_
_symmetry_equiv_pos_site_id
_symmetry_equiv_pos_as_xyz
_cell_length_a                        9.0634
_cell_length_b                        7.7266
_cell_length_c                       10.3467
_cell_angle_alpha                   87.7611
_cell_angle_beta                   107.4569
_cell_angle_gamma                   90.5976

loop_
_atom_site_label
_atom_site_type_symbol
_atom_site_fract_x
_atom_site_fract_y
_atom_site_fract_z
_atom_site_charge
  Ge     Ge        0.313819999999964    0.296860000000038    0.309830000000034  0.0000
  Ge     Ge        0.685640512839850    0.293141284139188    0.400159362640025  0.0000
  Ge     Ge        0.330560179104951    0.669554066485286    0.634001625814905  0.0000
  Ge     Ge        0.095084026569586    0.990021898120782    0.159872012558305  0.0000
  Si     Si        0.687104562536206    0.267229159590247    0.711025776425026  0.0000
  Si     Si        0.692677424002559    0.662669115649271    0.723378460833727  0.0000
  Si     Si        0.320103369792999    0.695991786743981    0.328629252572426  0.0000
  Si     Si        0.329667071054261    0.264594557078384    0.619550833328614  0.0000
  Si     Si        0.679564139519509    0.687287429105169    0.417270393094952  0.0000
  Si     Si        0.886137535894785    0.985996008693308    0.356430788235760  0.0000
  Si     Si        0.116371186660033    0.965776439170717    0.651930500597866  0.0000
  Si     Si        0.904119904893241    0.965680118488875    0.843650192906106  0.0000
  O3     O3        0.315936602593119    0.213502697040048    0.468352033025571  0.0000
  O3     O3        0.696432302978947    0.225569611130637    0.563892492844960  0.0000
  O2     O2        0.694798712472752    0.723240534862123    0.573072642448019  0.0000
  O3     O3        0.311900436761271    0.754617238471885    0.473313299091912  0.0000
  O3     O3        0.247199461416907    0.507748328857434    0.294891361050323  0.0000
  O2     O2        0.747632545523881    0.461852641955040    0.752248227989700  0.0000
  O1     O1        0.498520639292199    0.275362087963822    0.299428606370650  0.0000
  O2     O2        0.509185146649722    0.254589835076099    0.710490648273549  0.0000
  O3     O3        0.521065006638776    0.681083074295220    0.733324861367906  0.0000
  O2     O2        0.499320912833800    0.671178661154627    0.334540048150676  0.0000
  O1     O1        0.178975360963840    0.188590633818623    0.189132409868513  0.0000
  O2     O2        0.787166127686195    0.128652592162501    0.822275490861335  0.0000
  O2     O2        0.809343575882736    0.784903498823101    0.829476330223761  0.0000
  O3     O3        0.240530404915446    0.838111209502608    0.216058933487206  0.0000
  O3     O3        0.268963180606391    0.457336845909342    0.624149860575086  0.0000
  O3     O3        0.753492219722882    0.505166978502755    0.404097880076367  0.0000
  O2     O2        0.231986894703557    0.129454554459461    0.683106269655335  0.0000
  O3     O3        0.812601628033043    0.175311853146003    0.344003536648357  0.0000
  O2     O2        0.752289712248662    0.846647115639445    0.354836218166121  0.0000
  O3     O3        0.214241285185757    0.791201185928274    0.699939745959748  0.0000
  O2     O2        0.029792332396305    0.960465859329928    0.491621237041316  0.0000
  O3     O3        0.946283517499344    0.956879260145831    0.229465389537013  0.0000
  O2     O2        0.992056397429658    0.985464104510988    0.730668736655397  0.0000
  O3     O3        0.025958027216272    0.965653473743470    0.988307390034103  0.0000
