data_c00050.vasp
_audit_creation_method             Generated by GULP
_audit_author_name                 Salvador R. G. Balestra
_symmetry_space_group_name_H-M     'P 1             '
_symmetry_Int_Tables_number        1

loop_
_symmetry_equiv_pos_site_id
_symmetry_equiv_pos_as_xyz
_cell_length_a                        8.9313
_cell_length_b                        7.6190
_cell_length_c                       10.3583
_cell_angle_alpha                   91.0211
_cell_angle_beta                   107.6961
_cell_angle_gamma                   88.1903

loop_
_atom_site_label
_atom_site_type_symbol
_atom_site_fract_x
_atom_site_fract_y
_atom_site_fract_z
_atom_site_charge
  Ge     Ge        0.313819999999964    0.296860000000038    0.309830000000034  0.0000
  Ge     Ge        0.365244933936626    0.718164703723341    0.320562428823888  0.0000
  Ge     Ge        0.685319584015068    0.226783828500654    0.393255817815009  0.0000
  Ge     Ge        0.938688419643498    0.933267188339026    0.379558208382501  0.0000
  Si     Si        0.709002940677509    0.248752951780401    0.702018902637654  0.0000
  Si     Si        0.739411615174033    0.643350813009544    0.711171098938960  0.0000
  Si     Si        0.339839275450732    0.300335497307637    0.619366571295961  0.0000
  Si     Si        0.724845139069446    0.636718938041488    0.405587566265452  0.0000
  Si     Si        0.375919616028406    0.701848996806623    0.630835214236089  0.0000
  Si     Si        0.158687097055428    0.997558204236566    0.686134681191480  0.0000
  Si     Si        0.124984666956756    0.987673863442533    0.164527614698955  0.0000
  Si     Si        0.934480562432454    0.956549570712916    0.860418229032317  0.0000
  O3     O3        0.263591205811825    0.281513776234519    0.459138312889691  0.0000
  O3     O3        0.758273027330353    0.211088922967292    0.568671747856859  0.0000
  O2     O2        0.776831888211916    0.635937537350066    0.569814649549136  0.0000
  O3     O3        0.317942675425542    0.741043045811240    0.471635618589148  0.0000
  O1     O1        0.319346636205096    0.507529158067062    0.263383488463315  0.0000
  O2     O2        0.754940743321885    0.443588258170003    0.765542669433056  0.0000
  O1     O1        0.489617269599068    0.184141169334557    0.336495283893044  0.0000
  O2     O2        0.520738970474676    0.231505773866784    0.660538328221012  0.0000
  O2     O2        0.563690019910456    0.721592008445247    0.690403907926525  0.0000
  O3     O3        0.563768070141289    0.751352841355736    0.356720364018768  0.0000
  O3     O3        0.169725121336156    0.189212210025070    0.185446836876670  0.0000
  O2     O2        0.798148930328733    0.106035600792974    0.813627166840734  0.0000
  O2     O2        0.864219668288047    0.765264502644473    0.815177553569485  0.0000
  O3     O3        0.279363460298528    0.862549009990284    0.191341036771335  0.0000
  O2     O2        0.330618029521445    0.505371142406272    0.659784371345782  0.0000
  O3     O3        0.696999790669598    0.442567622376534    0.346934362433462  0.0000
  O2     O2        0.243998150544370    0.184165396049399    0.694296767105945  0.0000
  O1     O1        0.794326137221906    0.092804137742133    0.322490380486516  0.0000
  O3     O3        0.858314455071416    0.727089880298761    0.361090789628739  0.0000
  O2     O2        0.288836952848403    0.839819936954450    0.704749516323575  0.0000
  O3     O3        0.020845867796565    0.979877063528078    0.548643462135261  0.0000
  O3     O3        0.066312011669030    0.920596957333487    0.287838772166505  0.0000
  O2     O2        0.084045528814341    0.992347513876736    0.809466947040152  0.0000
  O2     O2        0.993379598679000    0.957578185665822    0.022684302361466  0.0000
