data_c00075.vasp
_audit_creation_method             Generated by GULP
_audit_author_name                 Salvador R. G. Balestra
_symmetry_space_group_name_H-M     'P 1             '
_symmetry_Int_Tables_number        1

loop_
_symmetry_equiv_pos_site_id
_symmetry_equiv_pos_as_xyz
_cell_length_a                        9.2205
_cell_length_b                        7.7193
_cell_length_c                       10.2752
_cell_angle_alpha                   89.5664
_cell_angle_beta                   110.1094
_cell_angle_gamma                   88.4363

loop_
_atom_site_label
_atom_site_type_symbol
_atom_site_fract_x
_atom_site_fract_y
_atom_site_fract_z
_atom_site_charge
  Ge     Ge        0.313819999999964    0.296860000000038    0.309830000000034  0.0000
  Ge     Ge        0.360107807800102    0.290844791570795    0.638716678922229  0.0000
  Ge     Ge        0.901453980368278    0.964633119645910    0.383467925343787  0.0000
  Ge     Ge        0.163222636206886    0.985453843520080    0.698330984722875  0.0000
  Si     Si        0.714683867285033    0.260718371896635    0.703962663872173  0.0000
  Si     Si        0.739277065354838    0.656092586662615    0.708316609715676  0.0000
  Si     Si        0.337381938289289    0.702600473120921    0.323022342369974  0.0000
  Si     Si        0.669334761625749    0.270408786334724    0.383943787453717  0.0000
  Si     Si        0.694727868868825    0.663217559869044    0.395003639778728  0.0000
  Si     Si        0.382613279571759    0.697198403664486    0.636890962350130  0.0000
  Si     Si        0.104181049865939    0.995240000827582    0.180745472831685  0.0000
  Si     Si        0.944603157698422    0.953208024727029    0.867120846244248  0.0000
  O1     O1        0.314318516387300    0.230823616832203    0.469383852694861  0.0000
  O2     O2        0.676417800032326    0.228445635887549    0.540790930534236  0.0000
  O2     O2        0.745535575814198    0.707988111715991    0.558349040150296  0.0000
  O2     O2        0.337026704138354    0.753838624909741    0.475317085776662  0.0000
  O3     O3        0.266159520715215    0.515974310604971    0.285486455444090  0.0000
  O2     O2        0.784551100855586    0.452508774005237    0.742451905819792  0.0000
  O3     O3        0.491330916952082    0.261385745928104    0.290464000304530  0.0000
  O3     O3        0.554963036103191    0.247685229546541    0.730820165150958  0.0000
  O2     O2        0.567825255210638    0.690642334935942    0.710758993057219  0.0000
  O2     O2        0.511785877044614    0.699682545529181    0.322132573077636  0.0000
  O3     O3        0.176777735140402    0.181884477279587    0.186414024060831  0.0000
  O2     O2        0.840003523656706    0.119018931720272    0.790118320616991  0.0000
  O2     O2        0.857765555947875    0.773444296993623    0.820957472369767  0.0000
  O2     O2        0.241832603262713    0.848291360385878    0.212980515377853  0.0000
  O3     O3        0.318465602367076    0.509391915188417    0.645451589758255  0.0000
  O2     O2        0.732739179711759    0.462401606499816    0.376850355711575  0.0000
  O1     O1        0.242940075054997    0.184105037303076    0.706993071421535  0.0000
  O3     O3        0.774446836065976    0.141346396739384    0.334406360975919  0.0000
  O3     O3        0.792387611147213    0.781442803550403    0.332232393614694  0.0000
  O3     O3        0.310932665013101    0.836333326510327    0.711135761644083  0.0000
  O1     O1        0.001139689316259    0.962175028240247    0.556540439336865  0.0000
  O3     O3        0.028937971300263    0.975131422321376    0.297818339074072  0.0000
  O3     O3        0.103702144636939    0.953489142597659    0.839002309702622  0.0000
  O2     O2        0.977279863440872    0.967862191980160    0.030617675241687  0.0000
