data_c00083.vasp
_audit_creation_method             Generated by GULP
_audit_author_name                 Salvador R. G. Balestra
_symmetry_space_group_name_H-M     'P 1             '
_symmetry_Int_Tables_number        1

loop_
_symmetry_equiv_pos_site_id
_symmetry_equiv_pos_as_xyz
_cell_length_a                        9.0106
_cell_length_b                        7.6525
_cell_length_c                       10.3586
_cell_angle_alpha                   87.2893
_cell_angle_beta                   108.3686
_cell_angle_gamma                   92.2327

loop_
_atom_site_label
_atom_site_type_symbol
_atom_site_fract_x
_atom_site_fract_y
_atom_site_fract_z
_atom_site_charge
  Ge     Ge        0.313819999999964    0.296860000000038    0.309830000000034  0.0000
  Ge     Ge        0.685520531897322    0.369289381837880    0.390193982549244  0.0000
  Ge     Ge        0.640834080436693    0.780198114100964    0.387688009621194  0.0000
  Ge     Ge        0.108641869022349    0.988788025419020    0.671766452339986  0.0000
  Si     Si        0.699365734020478    0.342841195579004    0.698806263163870  0.0000
  Si     Si        0.661801975797613    0.735500114139819    0.699933255578411  0.0000
  Si     Si        0.278487652227266    0.710301205196453    0.308635510388819  0.0000
  Si     Si        0.334606507811572    0.284415691564750    0.617681812926677  0.0000
  Si     Si        0.298855533063115    0.683671249917792    0.613985893151630  0.0000
  Si     Si        0.882863523680011    0.068936834668721    0.365226087165151  0.0000
  Si     Si        0.076219714582610    0.013420579555271    0.165153778886010  0.0000
  Si     Si        0.888810553060061    0.024730416974310    0.856642945264927  0.0000
  O3     O3        0.264107338438794    0.253532781925468    0.457020188125472  0.0000
  O3     O3        0.752778127906708    0.357185185685460    0.566840836767797  0.0000
  O3     O3        0.707789609935082    0.774130642735826    0.564223510533881  0.0000
  O2     O2        0.236422744488723    0.707723539403159    0.449898591210761  0.0000
  O3     O3        0.285104958995702    0.516988403669577    0.262015638078724  0.0000
  O2     O2        0.707594614252427    0.537146260138349    0.757631469291539  0.0000
  O1     O1        0.507116145402333    0.262788343576701    0.336307617629565  0.0000
  O2     O2        0.521519991593845    0.266921737408835    0.657628591079274  0.0000
  O2     O2        0.476804079404396    0.759878491185813    0.669057944970557  0.0000
  O3     O3        0.442817102213687    0.813439408417679    0.333986887221045  0.0000
  O3     O3        0.206130800585187    0.166483152463062    0.180272876936133  0.0000
  O2     O2        0.813908956642201    0.214068614182353    0.809153089234210  0.0000
  O2     O2        0.757018559421520    0.871953764506492    0.810725270790925  0.0000
  O2     O2        0.150528330938957    0.821540698951666    0.193065307555124  0.0000
  O2     O2        0.294512430885935    0.477596342120401    0.652522999335876  0.0000
  O1     O1        0.675085778300111    0.581400144913331    0.333805817695471  0.0000
  O3     O3        0.258768064024424    0.144149096083968    0.697044003713082  0.0000
  O3     O3        0.824234062023280    0.265750242733302    0.340675399707315  0.0000
  O3     O3        0.730827458986671    0.941005642035061    0.317411731095282  0.0000
  O3     O3        0.189012008997633    0.785077748022724    0.676202677566520  0.0000
  O3     O3        0.958840897738762    0.021696086551380    0.524744887831478  0.0000
  O2     O2        0.001442395092467    0.045804840304145    0.282979322168989  0.0000
  O3     O3        0.035539240436816    0.994244438711027    0.806134714291131  0.0000
  O2     O2        0.946207060144703    0.019945190986292    0.019698284853402  0.0000
