data_c00055.vasp
_audit_creation_method             Generated by GULP
_audit_author_name                 Salvador R. G. Balestra
_symmetry_space_group_name_H-M     'P 1             '
_symmetry_Int_Tables_number        1

loop_
_symmetry_equiv_pos_site_id
_symmetry_equiv_pos_as_xyz
_cell_length_a                        8.9814
_cell_length_b                        7.6522
_cell_length_c                       10.0735
_cell_angle_alpha                   90.8929
_cell_angle_beta                   105.6269
_cell_angle_gamma                   87.9195

loop_
_atom_site_label
_atom_site_type_symbol
_atom_site_fract_x
_atom_site_fract_y
_atom_site_fract_z
_atom_site_charge
  Ge     Ge        0.313819999999964    0.296860000000038    0.309830000000034  0.0000
  Ge     Ge        0.362783040863160    0.708421968092905    0.319604389084613  0.0000
  Ge     Ge        0.925459137924789    0.938063303049816    0.397194509509495  0.0000
  Ge     Ge        0.116659791514393    0.987916508934123    0.167761269537391  0.0000
  Si     Si        0.689869220000395    0.247236334049139    0.706043570489785  0.0000
  Si     Si        0.718939188318749    0.644865520204780    0.713304554009446  0.0000
  Si     Si        0.334235166473055    0.290929787268598    0.628142083279134  0.0000
  Si     Si        0.678531468262428    0.233302149283792    0.392325589314699  0.0000
  Si     Si        0.719980507483589    0.628560713538472    0.401283615330672  0.0000
  Si     Si        0.367432722823728    0.696495028382931    0.636969748023926  0.0000
  Si     Si        0.146714475199452    0.992770587410253    0.698152195516081  0.0000
  Si     Si        0.914277135460614    0.951462683532113    0.866697217661586  0.0000
  O3     O3        0.297679114979619    0.232423955688335    0.470568565952362  0.0000
  O2     O2        0.693898682214926    0.191609487325657    0.552898228908797  0.0000
  O2     O2        0.721937173666396    0.681197258713097    0.558362906569020  0.0000
  O3     O3        0.354121037299888    0.764887773573271    0.485419716231604  0.0000
  O1     O1        0.274654798221764    0.512446264990496    0.284189604735602  0.0000
  O2     O2        0.758716957153342    0.439533594340843    0.748280460972765  0.0000
  O3     O3        0.501220237194843    0.236279563922488    0.307295479238412  0.0000
  O2     O2        0.512254749892498    0.248952010671075    0.711255363585321  0.0000
  O2     O2        0.546706761965053    0.693430973780476    0.726853686727910  0.0000
  O3     O3        0.551223000364029    0.683369797417985    0.309907212828531  0.0000
  O1     O1        0.181109883162673    0.195737814693774    0.181092358448167  0.0000
  O2     O2        0.788664368547879    0.106945185682606    0.812706410297594  0.0000
  O2     O2        0.844640862446808    0.763221497818107    0.815492985701522  0.0000
  O1     O1        0.278081778723578    0.852101216303963    0.193115260317671  0.0000
  O2     O2        0.300756876301647    0.500981190473145    0.633500738533516  0.0000
  O2     O2        0.750871144233483    0.422020768655549    0.384865614342066  0.0000
  O2     O2        0.226891892088467    0.179749153873415    0.699512126048478  0.0000
  O3     O3        0.775551344521961    0.089708111472512    0.333419242761538  0.0000
  O3     O3        0.851882402489291    0.730731700711267    0.363124833787011  0.0000
  O2     O2        0.269089264979472    0.830730434160750    0.707343796483026  0.0000
  O3     O3        0.998395112337718    0.977207955851143    0.570755674475085  0.0000
  O1     O1        0.065607020860597    0.942657762382712    0.316965616628291  0.0000
  O2     O2        0.077317892145595    0.983568051840566    0.831075674668044  0.0000
  O3     O3        0.959589278250881    0.951669582423166    0.030916251512930  0.0000
