data_c00015.vasp
_audit_creation_method             Generated by GULP
_audit_author_name                 Salvador R. G. Balestra
_symmetry_space_group_name_H-M     'P 1             '
_symmetry_Int_Tables_number        1

loop_
_symmetry_equiv_pos_site_id
_symmetry_equiv_pos_as_xyz
_cell_length_a                        9.1745
_cell_length_b                        7.6678
_cell_length_c                       10.0478
_cell_angle_alpha                   87.9390
_cell_angle_beta                   108.7545
_cell_angle_gamma                   87.9226

loop_
_atom_site_label
_atom_site_type_symbol
_atom_site_fract_x
_atom_site_fract_y
_atom_site_fract_z
_atom_site_charge
  Ge     Ge        0.313819999999964    0.296860000000038    0.309830000000034  0.0000
  Ge     Ge        0.715333432402842    0.218374548732490    0.729444656661065  0.0000
  Ge     Ge        0.345170069450843    0.263688045942964    0.647686527443146  0.0000
  Ge     Ge        0.114507858158861    0.981727968829537    0.176693769609288  0.0000
  Si     Si        0.733730538482947    0.627638720216014    0.736735796678243  0.0000
  Si     Si        0.360091634939365    0.680581260990536    0.339105548338177  0.0000
  Si     Si        0.678756948335071    0.246076101016195    0.402060187107039  0.0000
  Si     Si        0.707458434425958    0.646739057205615    0.418597308295095  0.0000
  Si     Si        0.385265344549277    0.650913220925724    0.659312301546982  0.0000
  Si     Si        0.892168878660473    0.950225336938560    0.351421175021317  0.0000
  Si     Si        0.143195546080437    0.957509367403164    0.649799228462325  0.0000
  Si     Si        0.958727728732303    0.907770362364869    0.862306458795675  0.0000
  O1     O1        0.299279974563083    0.238805693168093    0.470647757518418  0.0000
  O3     O3        0.708180178321520    0.174609816907814    0.560463538077403  0.0000
  O2     O2        0.736397714939670    0.685318712937776    0.581114045845116  0.0000
  O2     O2        0.383095481892836    0.613977473357716    0.500644377142827  0.0000
  O3     O3        0.278300444632871    0.517760647202204    0.256211898816732  0.0000
  O3     O3        0.777300233482093    0.425907396276616    0.771100288643139  0.0000
  O3     O3        0.501371692609910    0.249099883237011    0.312186367390599  0.0000
  O1     O1        0.533740844225987    0.198186561962040    0.736020512056219  0.0000
  O2     O2        0.564151403831047    0.673446607032258    0.749043266412745  0.0000
  O2     O2        0.530915415912276    0.700640124689453    0.327002122993373  0.0000
  O1     O1        0.177924614861954    0.188329329267659    0.186678934777377  0.0000
  O3     O3        0.851818042277982    0.082354840010593    0.848300259147180  0.0000
  O2     O2        0.852875229064469    0.741761967815046    0.847993787189949  0.0000
  O3     O3        0.268111469777246    0.861945319328646    0.296719504725951  0.0000
  O3     O3        0.321917569989805    0.473572976223038    0.701598463565861  0.0000
  O2     O2        0.743592171241563    0.441785606537311    0.403607556281377  0.0000
  O3     O3        0.214800787313348    0.139944783622339    0.697161951350515  0.0000
  O2     O2        0.773866137227548    0.115427247519841    0.334832159906034  0.0000
  O2     O2        0.817539431256520    0.764684491764108    0.361109816144306  0.0000
  O2     O2        0.288094320962687    0.820384501326910    0.674266402412800  0.0000
  O2     O2        0.044541576213315    0.965926536762529    0.485517889634215  0.0000
  O3     O3        0.946555280049087    0.956959145500213    0.216194673681015  0.0000
  O2     O2        0.038428403449734    0.901090576263419    0.741690522132963  0.0000
  O3     O3        0.087193758115084    0.901295254901255    0.012876709679286  0.0000
