data_c00064.vasp
_audit_creation_method             Generated by GULP
_audit_author_name                 Salvador R. G. Balestra
_symmetry_space_group_name_H-M     'P 1             '
_symmetry_Int_Tables_number        1

loop_
_symmetry_equiv_pos_site_id
_symmetry_equiv_pos_as_xyz
_cell_length_a                        9.0958
_cell_length_b                        7.7343
_cell_length_c                       10.3166
_cell_angle_alpha                   88.2937
_cell_angle_beta                   108.1166
_cell_angle_gamma                   89.5106

loop_
_atom_site_label
_atom_site_type_symbol
_atom_site_fract_x
_atom_site_fract_y
_atom_site_fract_z
_atom_site_charge
  Ge     Ge        0.313819999999964    0.296860000000038    0.309830000000034  0.0000
  Ge     Ge        0.336425518588160    0.269460204448934    0.633492116675130  0.0000
  Ge     Ge        0.684249771145501    0.275301505657143    0.402838280758939  0.0000
  Ge     Ge        0.104484971168069    0.987031970190720    0.165357329999549  0.0000
  Si     Si        0.696485702121801    0.253150194449546    0.719432724746260  0.0000
  Si     Si        0.705862778196278    0.650407360795681    0.726235757932951  0.0000
  Si     Si        0.337799246388577    0.693698759892301    0.334151230219871  0.0000
  Si     Si        0.697668690724454    0.669325120267967    0.423109514013600  0.0000
  Si     Si        0.348708270089665    0.672327911245044    0.639312063273608  0.0000
  Si     Si        0.895926611074433    0.970439665839112    0.359764984249657  0.0000
  Si     Si        0.129247291582510    0.964803394528254    0.657505634329923  0.0000
  Si     Si        0.918823218712048    0.945145579789535    0.849063860843774  0.0000
  O1     O1        0.315832708891338    0.221420715829929    0.468991144817840  0.0000
  O3     O3        0.688048553167609    0.211870974954341    0.566011312559791  0.0000
  O2     O2        0.718972982734885    0.711697020012774    0.579839462405110  0.0000
  O2     O2        0.330167895891559    0.733607466640828    0.484564450449965  0.0000
  O3     O3        0.257262223637535    0.513343487233656    0.287713773799676  0.0000
  O2     O2        0.757336129934489    0.448918134805632    0.756026858292170  0.0000
  O1     O1        0.497541457947002    0.266305014665655    0.299214375890715  0.0000
  O3     O3        0.527003739225574    0.237524178893067    0.733130102292874  0.0000
  O2     O2        0.530001797324934    0.672709129149070    0.727812743062225  0.0000
  O2     O2        0.515844706196453    0.666443415530749    0.339608119538817  0.0000
  O1     O1        0.174155447789755    0.191121690966502    0.189527792577557  0.0000
  O2     O2        0.812630372060296    0.118947631139539    0.825636903694982  0.0000
  O2     O2        0.814301626529732    0.773775942629573    0.837745500028468  0.0000
  O3     O3        0.263924023931180    0.852120650000814    0.235188827047997  0.0000
  O3     O3        0.283500193734970    0.482910655196467    0.644026422751149  0.0000
  O3     O3        0.761973581064205    0.480978021453859    0.410414964860090  0.0000
  O3     O3        0.216489444050649    0.143180553787146    0.695627201699988  0.0000
  O3     O3        0.805847194277321    0.151475508040739    0.344371262285491  0.0000
  O2     O2        0.778504783271688    0.816640268378886    0.359830205578052  0.0000
  O2     O2        0.256091510032381    0.808497818042513    0.700704544451345  0.0000
  O2     O2        0.043135900942920    0.964729684276127    0.495529028024705  0.0000
  O3     O3        0.956049562219718    0.947679212713939    0.231880497115610  0.0000
  O2     O2        0.005376662145171    0.939142996684660    0.735723693237751  0.0000
  O3     O3        0.042486008015956    0.944145693806061    0.994975541876662  0.0000
