data_c00077.vasp
_audit_creation_method             Generated by GULP
_audit_author_name                 Salvador R. G. Balestra
_symmetry_space_group_name_H-M     'P 1             '
_symmetry_Int_Tables_number        1

loop_
_symmetry_equiv_pos_site_id
_symmetry_equiv_pos_as_xyz
_cell_length_a                        9.2509
_cell_length_b                        7.6646
_cell_length_c                       10.0413
_cell_angle_alpha                   87.7103
_cell_angle_beta                   108.7896
_cell_angle_gamma                   88.5115

loop_
_atom_site_label
_atom_site_type_symbol
_atom_site_fract_x
_atom_site_fract_y
_atom_site_fract_z
_atom_site_charge
  Ge     Ge        0.313819999999964    0.296860000000038    0.309830000000034  0.0000
  Ge     Ge        0.346609371682478    0.270559725595898    0.645130778065788  0.0000
  Ge     Ge        0.896957672632688    0.967374756069077    0.345893603475280  0.0000
  Ge     Ge        0.947156021559387    0.922063617681054    0.855412231168789  0.0000
  Si     Si        0.706784760935258    0.228142681068591    0.715889836869835  0.0000
  Si     Si        0.726503329643773    0.635368422183880    0.730462039076690  0.0000
  Si     Si        0.352354498483872    0.687185106390557    0.332782996171443  0.0000
  Si     Si        0.676629664995305    0.258386634886314    0.399742193529227  0.0000
  Si     Si        0.698903130132387    0.665787612790797    0.414295947625772  0.0000
  Si     Si        0.381785235618909    0.659402088331650    0.656430719783073  0.0000
  Si     Si        0.146360830145294    0.965124017545867    0.649521614940895  0.0000
  Si     Si        0.117380575955073    0.989428437700960    0.170047622088835  0.0000
  O1     O1        0.284073582130203    0.255217780783086    0.466356904641144  0.0000
  O2     O2        0.719702913515154    0.186047693975235    0.562669440948118  0.0000
  O2     O2        0.739064777571956    0.704365617285420    0.579424181430798  0.0000
  O2     O2        0.364896738046678    0.629265556806529    0.493245913744358  0.0000
  O3     O3        0.287040319789759    0.517005796513085    0.251103371963656  0.0000
  O2     O2        0.751644156870015    0.427258572980450    0.750004675801125  0.0000
  O3     O3        0.499262004111646    0.238801915959141    0.320954529236734  0.0000
  O3     O3        0.536092944431583    0.199754679464025    0.713396514529069  0.0000
  O2     O2        0.559461616740766    0.690568452970730    0.738489454550214  0.0000
  O2     O2        0.522671763597072    0.727003334182421    0.330405448106631  0.0000
  O3     O3        0.180998829209341    0.182167552970144    0.186387135410174  0.0000
  O3     O3        0.824099559411022    0.102160863445588    0.832204246708409  0.0000
  O3     O3        0.849232924266949    0.731370497417201    0.850120109215089  0.0000
  O2     O2        0.248212858186791    0.860932273826430    0.279011702377325  0.0000
  O3     O3        0.330364923868984    0.476801481773997    0.705020941047585  0.0000
  O2     O2        0.721566189266450    0.460349554385362    0.395934887048202  0.0000
  O3     O3        0.227643512322896    0.142013383164804    0.705755011125256  0.0000
  O3     O3        0.773036255322036    0.144819579973661    0.326799720081755  0.0000
  O3     O3        0.808786137413210    0.772554793122956    0.351492737056025  0.0000
  O2     O2        0.284216790007532    0.819428098292120    0.681877063081273  0.0000
  O3     O3        0.062575402138939    0.982665118976880    0.483142906703651  0.0000
  O3     O3        0.957898657455476    0.973338345459770    0.199850413131502  0.0000
  O3     O3        0.025991715828631    0.911073289005844    0.723040011697617  0.0000
  O3     O3        0.090589897170889    0.931259352522629    0.012808469612201  0.0000
