data_c00019.vasp
_audit_creation_method             Generated by GULP
_audit_author_name                 Salvador R. G. Balestra
_symmetry_space_group_name_H-M     'P 1             '
_symmetry_Int_Tables_number        1

loop_
_symmetry_equiv_pos_site_id
_symmetry_equiv_pos_as_xyz
_cell_length_a                        9.0581
_cell_length_b                        7.6682
_cell_length_c                       10.3246
_cell_angle_alpha                   89.0717
_cell_angle_beta                   108.3551
_cell_angle_gamma                   91.5232

loop_
_atom_site_label
_atom_site_type_symbol
_atom_site_fract_x
_atom_site_fract_y
_atom_site_fract_z
_atom_site_charge
  Ge     Ge        0.313819999999964    0.296860000000038    0.309830000000034  0.0000
  Ge     Ge        0.704867841376192    0.355724001464105    0.704600478106112  0.0000
  Ge     Ge        0.644100238850645    0.757621889654888    0.378030277160808  0.0000
  Ge     Ge        0.111791091611216    0.000716910502424    0.667086975223101  0.0000
  Si     Si        0.665139822950862    0.755354756615956    0.692502435464789  0.0000
  Si     Si        0.281120401148998    0.705764546353301    0.299225453814728  0.0000
  Si     Si        0.340112366919161    0.293810232277239    0.621437973430402  0.0000
  Si     Si        0.678646766969848    0.356494639044875    0.389674476460080  0.0000
  Si     Si        0.307423406488799    0.696664627085733    0.607663250258897  0.0000
  Si     Si        0.876678089549287    0.054157340072086    0.362064967318612  0.0000
  Si     Si        0.077282176453562    0.010624675691481    0.165582613064780  0.0000
  Si     Si        0.900264601355752    0.039486488860757    0.855521628225410  0.0000
  O3     O3        0.271472416640972    0.259070681181190    0.459836251242502  0.0000
  O3     O3        0.745470368944787    0.367538962212906    0.553008494034850  0.0000
  O3     O3        0.708553233178335    0.770374818090714    0.553682953787282  0.0000
  O2     O2        0.245722669757420    0.708785571934130    0.443308869671176  0.0000
  O3     O3        0.275582290504249    0.509007358258952    0.251001398920152  0.0000
  O3     O3        0.711065495916467    0.567636715299498    0.761834640945907  0.0000
  O3     O3        0.509719839838840    0.262913612360339    0.346573625470188  0.0000
  O3     O3        0.522983496427244    0.261214639531722    0.677328383462099  0.0000
  O2     O2        0.480624671257282    0.781705716512028    0.659536090538455  0.0000
  O3     O3        0.447719492804299    0.797202051473634    0.317541213514281  0.0000
  O3     O3        0.211383760637155    0.157101282862052    0.183097617207077  0.0000
  O3     O3        0.846517003628402    0.236285988610359    0.818282137002579  0.0000
  O2     O2        0.752898900259067    0.910841314141441    0.790628729313788  0.0000
  O2     O2        0.150231524987612    0.818788270917457    0.191150000166397  0.0000
  O2     O2        0.312991912123493    0.494820322910881    0.652725787019963  0.0000
  O3     O3        0.669266884982542    0.549227905183812    0.327508750170275  0.0000
  O3     O3        0.249633869867607    0.166706082018800    0.695138243211016  0.0000
  O2     O2        0.793059026526523    0.240733644331764    0.335949600819103  0.0000
  O3     O3        0.747844364211257    0.901232145065523    0.309693719296826  0.0000
  O3     O3        0.194744913776998    0.799974865789149    0.666955514577133  0.0000
  O3     O3        0.957225380620067    0.027417284204585    0.522593064819346  0.0000
  O2     O2        0.999567153643040    0.055884598358829    0.280757840535802  0.0000
  O3     O3        0.044136224355704    0.994668519751104    0.805225464924213  0.0000
  O2     O2        0.950331614717822    0.015735725788627    0.018347440990889  0.0000
