data_c00078.vasp
_audit_creation_method             Generated by GULP
_audit_author_name                 Salvador R. G. Balestra
_symmetry_space_group_name_H-M     'P 1             '
_symmetry_Int_Tables_number        1

loop_
_symmetry_equiv_pos_site_id
_symmetry_equiv_pos_as_xyz
_cell_length_a                        9.1778
_cell_length_b                        7.7218
_cell_length_c                       10.0881
_cell_angle_alpha                   88.6209
_cell_angle_beta                   108.4439
_cell_angle_gamma                   88.6010

loop_
_atom_site_label
_atom_site_type_symbol
_atom_site_fract_x
_atom_site_fract_y
_atom_site_fract_z
_atom_site_charge
  Ge     Ge        0.313819999999964    0.296860000000038    0.309830000000034  0.0000
  Ge     Ge        0.339033018309234    0.277781806664834    0.635172825290725  0.0000
  Ge     Ge        0.137635274173074    0.974714007677948    0.702864460236429  0.0000
  Ge     Ge        0.088787539384222    0.000937062949948    0.185056139087911  0.0000
  Si     Si        0.689277892716201    0.262708116974216    0.710366717927078  0.0000
  Si     Si        0.713477022552363    0.650723017122606    0.720948158407737  0.0000
  Si     Si        0.330652366573479    0.706627860163364    0.325960957975160  0.0000
  Si     Si        0.664075867693863    0.284849489458945    0.388034700108189  0.0000
  Si     Si        0.687241573532534    0.672246285651987    0.404039850904431  0.0000
  Si     Si        0.356537488432551    0.688107100661230    0.637184090240887  0.0000
  Si     Si        0.891699688649056    0.973674284744354    0.398514696540928  0.0000
  Si     Si        0.912217491247291    0.951197564219701    0.871733993699457  0.0000
  O1     O1        0.306115991097492    0.214067922530873    0.467248708911303  0.0000
  O2     O2        0.644349198923714    0.267695765780341    0.541752708304338  0.0000
  O2     O2        0.729625795551697    0.694287444977028    0.569955605004770  0.0000
  O2     O2        0.322109617869620    0.762060878226418    0.477850267077858  0.0000
  O3     O3        0.269435734197447    0.515479521047661    0.296097971218126  0.0000
  O2     O2        0.760268866935113    0.448705672268103    0.765725181024872  0.0000
  O3     O3        0.493095140877651    0.264365270055671    0.286910670891072  0.0000
  O3     O3        0.529610338853823    0.235734070959740    0.737836954422840  0.0000
  O2     O2        0.539223090144621    0.684730535543869    0.717605342548369  0.0000
  O2     O2        0.507256563412423    0.712519038873259    0.327872853529178  0.0000
  O1     O1        0.177659909292660    0.192242277772345    0.184161079299160  0.0000
  O2     O2        0.813500478703053    0.112521795151469    0.779089723836548  0.0000
  O2     O2        0.825469799879241    0.771308894192976    0.832391728232813  0.0000
  O3     O3        0.229633314270881    0.838718243661719    0.208970396303549  0.0000
  O3     O3        0.295010678807148    0.496730767531797    0.634731053873208  0.0000
  O2     O2        0.727539673101116    0.476238835107835    0.370283377524888  0.0000
  O1     O1        0.219778692223467    0.170652071203726    0.706368457771833  0.0000
  O2     O2        0.783006545118486    0.147664364795931    0.360787442535561  0.0000
  O2     O2        0.786686719706229    0.806365869372687    0.347311709259428  0.0000
  O3     O3        0.276419397943191    0.814954967057555    0.715742299792402  0.0000
  O3     O3        0.973675154510011    0.956101759494890    0.563017687835643  0.0000
  O3     O3        0.017636500930237    0.986641140430849    0.323396708474101  0.0000
  O3     O3        0.076067349494586    0.946064652130224    0.847451731388012  0.0000
  O3     O3        0.938639161709174    0.978919560788181    0.033568787631596  0.0000
