data_c00026.vasp
_audit_creation_method             Generated by GULP
_audit_author_name                 Salvador R. G. Balestra
_symmetry_space_group_name_H-M     'P 1             '
_symmetry_Int_Tables_number        1

loop_
_symmetry_equiv_pos_site_id
_symmetry_equiv_pos_as_xyz
_cell_length_a                        9.1806
_cell_length_b                        7.7183
_cell_length_c                       10.0033
_cell_angle_alpha                   84.4522
_cell_angle_beta                   109.5792
_cell_angle_gamma                   90.2694

loop_
_atom_site_label
_atom_site_type_symbol
_atom_site_fract_x
_atom_site_fract_y
_atom_site_fract_z
_atom_site_charge
  Ge     Ge        0.313819999999964    0.296860000000038    0.309830000000034  0.0000
  Ge     Ge        0.701330862180389    0.652531253173404    0.739098230673426  0.0000
  Ge     Ge        0.356315901701617    0.229164766119887    0.653233270839580  0.0000
  Ge     Ge        0.684005105369304    0.307948437710795    0.397863137607106  0.0000
  Si     Si        0.716183772925002    0.241534427482197    0.725413909016033  0.0000
  Si     Si        0.335073651823353    0.680356802911656    0.341151027550822  0.0000
  Si     Si        0.681828691680775    0.709981895242602    0.417244807828025  0.0000
  Si     Si        0.352966912343639    0.619449192423305    0.662617551713627  0.0000
  Si     Si        0.886903004227008    0.011527388480913    0.358212523558617  0.0000
  Si     Si        0.134198984318713    0.930550333490601    0.666586944823960  0.0000
  Si     Si        0.108039721591115    0.992721795026416    0.186353792778897  0.0000
  Si     Si        0.940509048339879    0.924364373487423    0.873460160460735  0.0000
  O1     O1        0.310898761397994    0.214935438405047    0.474547756810788  0.0000
  O3     O3        0.700571636549316    0.212175722323081    0.565116513388715  0.0000
  O3     O3        0.703298767941687    0.750471036956151    0.576669911388092  0.0000
  O2     O2        0.380212459197351    0.611923830311985    0.509671481179508  0.0000
  O3     O3        0.254820177576755    0.516623328875696    0.264258054409047  0.0000
  O3     O3        0.760708896831475    0.437737159414764    0.758381728390013  0.0000
  O1     O1        0.494859077722948    0.292143276903103    0.296459011371651  0.0000
  O3     O3        0.552375301275650    0.199264965808183    0.743290444819232  0.0000
  O3     O3        0.522119560585843    0.667341330507124    0.762188295071208  0.0000
  O2     O2        0.499563187434320    0.720425419465625    0.319713825352832  0.0000
  O3     O3        0.185560975445215    0.177613992306416    0.186957170818864  0.0000
  O2     O2        0.849848917492425    0.110378127488330    0.830945255014394  0.0000
  O3     O3        0.824491112989913    0.768649962165150    0.867207628107675  0.0000
  O2     O2        0.232590758537967    0.856061041664717    0.299588264919587  0.0000
  O3     O3        0.304721698526451    0.426542541626000    0.697970991784213  0.0000
  O3     O3        0.746492043371429    0.519569920937025    0.412018988653421  0.0000
  O3     O3        0.260037467869860    0.072507045778732    0.723175364188468  0.0000
  O3     O3        0.800836239817930    0.197161336649322    0.329899111486709  0.0000
  O2     O2        0.767546651370701    0.856765669048881    0.349241324525580  0.0000
  O2     O2        0.218258985721042    0.751805575441414    0.657277767825168  0.0000
  O2     O2        0.022422233020930    0.002228791251055    0.510186401161080  0.0000
  O2     O2        0.956820540349082    0.999626215904567    0.232500590865600  0.0000
  O2     O2        0.037157904796933    0.888335424435273    0.770848775807443  0.0000
  O2     O2        0.062015316929513    0.924259394150994    0.031978209577817  0.0000
