data_c00054.vasp
_audit_creation_method             Generated by GULP
_audit_author_name                 Salvador R. G. Balestra
_symmetry_space_group_name_H-M     'P 1             '
_symmetry_Int_Tables_number        1

loop_
_symmetry_equiv_pos_site_id
_symmetry_equiv_pos_as_xyz
_cell_length_a                        9.1162
_cell_length_b                        7.6539
_cell_length_c                       10.3122
_cell_angle_alpha                   88.6223
_cell_angle_beta                   108.9153
_cell_angle_gamma                   92.0001

loop_
_atom_site_label
_atom_site_type_symbol
_atom_site_fract_x
_atom_site_fract_y
_atom_site_fract_z
_atom_site_charge
  Ge     Ge        0.313819999999964    0.296860000000038    0.309830000000034  0.0000
  Ge     Ge        0.270969136792724    0.712221267412473    0.301499444826059  0.0000
  Ge     Ge        0.875566692333087    0.062406905239343    0.369806950192086  0.0000
  Ge     Ge        0.128007597287291    0.008444705730903    0.681526936210617  0.0000
  Si     Si        0.703163765468128    0.356210257594101    0.694838852711193  0.0000
  Si     Si        0.671414762981756    0.754373457304628    0.687234542091278  0.0000
  Si     Si        0.350587100283619    0.302995883066073    0.624587172592237  0.0000
  Si     Si        0.673433001632955    0.369989420223126    0.382814432066409  0.0000
  Si     Si        0.635245198025761    0.766610422522078    0.374110852359226  0.0000
  Si     Si        0.316273948317544    0.709736434138138    0.616359610427183  0.0000
  Si     Si        0.070734660959263    0.017979316213784    0.161572945549470  0.0000
  Si     Si        0.902594826437535    0.048646360566877    0.851190577375548  0.0000
  O3     O3        0.317152223750459    0.230165236752429    0.472800989279959  0.0000
  O2     O2        0.698667903026502    0.317615443842687    0.541723018931366  0.0000
  O2     O2        0.665185713550033    0.809472211724096    0.534140012663713  0.0000
  O3     O3        0.267330833777937    0.778024908489295    0.460320990083406  0.0000
  O1     O1        0.229313959878967    0.496058685478246    0.274721636596291  0.0000
  O2     O2        0.743121228743420    0.561727937626987    0.727713449521175  0.0000
  O3     O3        0.498197389233422    0.317631568277453    0.298577921472013  0.0000
  O2     O2        0.534725880651216    0.306693047252230    0.707291009203050  0.0000
  O2     O2        0.498169439281781    0.753577009646435    0.695012424866651  0.0000
  O3     O3        0.453812599442390    0.766162441314454    0.292851700095930  0.0000
  O3     O3        0.221020719584113    0.145976879229735    0.188247115566557  0.0000
  O2     O2        0.833721948392575    0.238704273809787    0.798036713321158  0.0000
  O2     O2        0.775654115090196    0.894773767115042    0.791268481494302  0.0000
  O3     O3        0.127933051673395    0.821258244100767    0.178284182777807  0.0000
  O2     O2        0.287306643139973    0.500088784593629    0.612389285313881  0.0000
  O2     O2        0.702638244027160    0.576423618633207    0.365767362034886  0.0000
  O3     O3        0.262479176326361    0.179001609174787    0.702052841631698  0.0000
  O3     O3        0.795043257054245    0.267041292310023    0.336947274009260  0.0000
  O3     O3        0.726900804274453    0.907055129041814    0.312154398687150  0.0000
  O3     O3        0.215600758752371    0.808635551149452    0.690418654149235  0.0000
  O1     O1        0.969709026323487    0.026021047769473    0.539469674842328  0.0000
  O3     O3        0.003838620557973    0.066435403579900    0.281670882884685  0.0000
  O3     O3        0.058600990651611    0.017258608378316    0.818724936452021  0.0000
  O2     O2        0.941857833352196    0.046799183317970    0.014967967811610  0.0000
