data_c00095.vasp
_audit_creation_method             Generated by GULP
_audit_author_name                 Salvador R. G. Balestra
_symmetry_space_group_name_H-M     'P 1             '
_symmetry_Int_Tables_number        1

loop_
_symmetry_equiv_pos_site_id
_symmetry_equiv_pos_as_xyz
_cell_length_a                        9.0578
_cell_length_b                        7.7178
_cell_length_c                       10.3115
_cell_angle_alpha                   88.9730
_cell_angle_beta                   106.5185
_cell_angle_gamma                   89.1693

loop_
_atom_site_label
_atom_site_type_symbol
_atom_site_fract_x
_atom_site_fract_y
_atom_site_fract_z
_atom_site_charge
  Ge     Ge        0.313819999999964    0.296860000000038    0.309830000000034  0.0000
  Ge     Ge        0.685356302447257    0.263282793152065    0.404158811465886  0.0000
  Ge     Ge        0.108678844958472    0.981776885682305    0.187606533826201  0.0000
  Ge     Ge        0.907354002624936    0.947407918409632    0.870110854020555  0.0000
  Si     Si        0.679172570883770    0.247080282890300    0.710097432931937  0.0000
  Si     Si        0.696653417660629    0.648516718901901    0.720237922304764  0.0000
  Si     Si        0.341667661774886    0.692802567473479    0.328679573817980  0.0000
  Si     Si        0.324621889777897    0.276076496615776    0.622827897008650  0.0000
  Si     Si        0.700735779857580    0.660755006650798    0.422288880053169  0.0000
  Si     Si        0.342365888196265    0.676179505648332    0.631516003573547  0.0000
  Si     Si        0.906276102183805    0.961059099007052    0.394167651442322  0.0000
  Si     Si        0.130198452039518    0.973683992360119    0.685153354793501  0.0000
  O3     O3        0.301010936294128    0.230997393177162    0.468323316917801  0.0000
  O3     O3        0.692507973158998    0.190507777989760    0.565579924418680  0.0000
  O2     O2        0.717603626259262    0.712552778184707    0.576793288779897  0.0000
  O2     O2        0.326612043811420    0.735307688141098    0.477907417904586  0.0000
  O3     O3        0.261164918745722    0.512527738672160    0.281246170635772  0.0000
  O2     O2        0.735734378174278    0.443973359561115    0.739977785183842  0.0000
  O1     O1        0.499317734697136    0.257729473873058    0.305177383394298  0.0000
  O2     O2        0.500841191184897    0.237951303594923    0.708913941782696  0.0000
  O2     O2        0.520178206443969    0.685106059827949    0.720495553121281  0.0000
  O2     O2        0.521224043682193    0.664287666994332    0.337974896780074  0.0000
  O1     O1        0.182081750666516    0.184730645495164    0.191081885059962  0.0000
  O3     O3        0.781884366788803    0.122036506618422    0.825096528870028  0.0000
  O3     O3        0.812785043865916    0.753717072172243    0.833892641997339  0.0000
  O3     O3        0.269519341085086    0.842966309908929    0.222706495121498  0.0000
  O2     O2        0.282556807153777    0.479575273993506    0.635782759197949  0.0000
  O3     O3        0.761705413963958    0.468656567480562    0.412453145145703  0.0000
  O2     O2        0.216901936148219    0.154879974239708    0.684415520118699  0.0000
  O3     O3        0.804396565780606    0.133516414035916    0.342073772610710  0.0000
  O2     O2        0.792012137552631    0.798583614618247    0.358859387414200  0.0000
  O2     O2        0.242498443553710    0.806966938528707    0.693088542918091  0.0000
  O2     O2        0.980753808502295    0.967960990359215    0.556400153897383  0.0000
  O3     O3        0.037284428338089    0.939795985852907    0.323268342030637  0.0000
  O3     O3        0.070072930110595    0.966496452066498    0.816065731612830  0.0000
  O1     O1        0.971271870766717    0.943600846937377    0.043031816681071  0.0000
