data_c00090.vasp
_audit_creation_method             Generated by GULP
_audit_author_name                 Salvador R. G. Balestra
_symmetry_space_group_name_H-M     'P 1             '
_symmetry_Int_Tables_number        1

loop_
_symmetry_equiv_pos_site_id
_symmetry_equiv_pos_as_xyz
_cell_length_a                        9.1011
_cell_length_b                        7.7045
_cell_length_c                       10.6836
_cell_angle_alpha                   87.4071
_cell_angle_beta                   110.9728
_cell_angle_gamma                   90.7947

loop_
_atom_site_label
_atom_site_type_symbol
_atom_site_fract_x
_atom_site_fract_y
_atom_site_fract_z
_atom_site_charge
  Ge     Ge        0.313819999999964    0.296860000000038    0.309830000000034  0.0000
  Ge     Ge        0.692393621912288    0.308612652236402    0.384522512194564  0.0000
  Ge     Ge        0.893454886628614    0.993804543603479    0.357944535782694  0.0000
  Ge     Ge        0.158758318549083    0.953285426877147    0.672961556098632  0.0000
  Si     Si        0.728948362582865    0.264385371368165    0.693411004690407  0.0000
  Si     Si        0.728694386383290    0.665381308277300    0.706566028016358  0.0000
  Si     Si        0.316129905936044    0.691346946762658    0.334952631988518  0.0000
  Si     Si        0.366900000711000    0.257891649217291    0.619858810275589  0.0000
  Si     Si        0.684074084176235    0.699975590221093    0.407521154499116  0.0000
  Si     Si        0.364678385025641    0.661023290888829    0.632544124874408  0.0000
  Si     Si        0.101027374217380    0.988657207297283    0.170588984983235  0.0000
  Si     Si        0.948740757039634    0.957812853638276    0.856271481930970  0.0000
  O3     O3        0.316886719543124    0.214054078437115    0.464571270210672  0.0000
  O3     O3        0.732438481848497    0.230465949145065    0.548651162670686  0.0000
  O2     O2        0.743259200847510    0.734847289399018    0.566757945895644  0.0000
  O2     O2        0.304739088334858    0.737921652144299    0.477778970806460  0.0000
  O3     O3        0.239756627076240    0.507513913658378    0.286185273286488  0.0000
  O2     O2        0.779883736656614    0.462996372205669    0.733645586191935  0.0000
  O1     O1        0.494970143813763    0.279417315643837    0.297327181619425  0.0000
  O2     O2        0.553898895080214    0.230600856873884    0.692844615075650  0.0000
  O2     O2        0.551955515182784    0.687325033347740    0.703099209120624  0.0000
  O2     O2        0.498056252181091    0.660158041142533    0.355285406075545  0.0000
  O3     O3        0.172415332773241    0.179516717706640    0.191880348428170  0.0000
  O2     O2        0.846806121508497    0.132470124059473    0.801033067837733  0.0000
  O2     O2        0.843868487053947    0.783310038027750    0.819880041620912  0.0000
  O2     O2        0.245469100115657    0.851094817131082    0.231017616332495  0.0000
  O2     O2        0.322921454473599    0.457706510642991    0.630538207382272  0.0000
  O3     O3        0.755758756659694    0.520746405377331    0.384829963962418  0.0000
  O3     O3        0.275425640370483    0.136223314546233    0.689949583775417  0.0000
  O1     O1        0.813413069195760    0.197082942063288    0.325898224648966  0.0000
  O3     O3        0.730167875916248    0.858287312174721    0.331215542533833  0.0000
  O3     O3        0.274834996787122    0.767148148161146    0.705900839668817  0.0000
  O1     O1        0.013992035667765    0.953211602900474    0.520263537744947  0.0000
  O3     O3        0.979665471349966    0.948785885387847    0.245308414045635  0.0000
  O3     O3        0.090625556728686    0.953675950802882    0.803334647860823  0.0000
  O2     O2        0.014240844594977    0.958880630454913    0.015471046078781  0.0000
