data_c00013.vasp
_audit_creation_method             Generated by GULP
_audit_author_name                 Salvador R. G. Balestra
_symmetry_space_group_name_H-M     'P 1             '
_symmetry_Int_Tables_number        1

loop_
_symmetry_equiv_pos_site_id
_symmetry_equiv_pos_as_xyz
_cell_length_a                        9.2211
_cell_length_b                        7.6907
_cell_length_c                       10.1897
_cell_angle_alpha                   89.2084
_cell_angle_beta                   109.5875
_cell_angle_gamma                   88.2348

loop_
_atom_site_label
_atom_site_type_symbol
_atom_site_fract_x
_atom_site_fract_y
_atom_site_fract_z
_atom_site_charge
  Ge     Ge        0.313819999999964    0.296860000000038    0.309830000000034  0.0000
  Ge     Ge        0.726247279927691    0.242931685639821    0.716354822576310  0.0000
  Ge     Ge        0.355227980457928    0.283346646745430    0.645647804251765  0.0000
  Ge     Ge        0.897354502833509    0.963412617618544    0.348072442925478  0.0000
  Si     Si        0.739383442418124    0.654306543429350    0.721425033654717  0.0000
  Si     Si        0.352731498298645    0.686353797992878    0.328798358730331  0.0000
  Si     Si        0.678158384294143    0.256569992634548    0.394652430225519  0.0000
  Si     Si        0.701042032117671    0.663054472267737    0.407713430075111  0.0000
  Si     Si        0.389631015430934    0.672484582398485    0.650688133059292  0.0000
  Si     Si        0.156485472768121    0.977648151811216    0.655818344581914  0.0000
  Si     Si        0.116095713192200    0.985817875427923    0.171574866507743  0.0000
  Si     Si        0.964417316050590    0.936430981738696    0.857691004047675  0.0000
  O1     O1        0.300064587195567    0.254175480821772    0.469533063084665  0.0000
  O3     O3        0.721711025330589    0.182945161257396    0.552189323928562  0.0000
  O2     O2        0.738621007621068    0.716530958941362    0.568441712324786  0.0000
  O2     O2        0.371999212808374    0.641360115269042    0.489477803326058  0.0000
  O3     O3        0.278820270230085    0.514374019490599    0.252984628110043  0.0000
  O3     O3        0.786116440604764    0.453731084567309    0.749272622832054  0.0000
  O3     O3        0.498538184487803    0.245548140081934    0.312956790281821  0.0000
  O1     O1        0.546132605060668    0.224275005446437    0.724688109391144  0.0000
  O2     O2        0.570843849762922    0.692825187056572    0.734142407215831  0.0000
  O2     O2        0.522621233705375    0.715200561789859    0.320348016914494  0.0000
  O3     O3        0.176582035340640    0.179392669038678    0.190248032355410  0.0000
  O3     O3        0.861512835122386    0.112073919544363    0.836866441437230  0.0000
  O2     O2        0.856740602371171    0.770919542301741    0.834936867973728  0.0000
  O2     O2        0.252803634384358    0.861690841656964    0.275186600116413  0.0000
  O3     O3        0.331022292796324    0.495088286775299    0.694437068952749  0.0000
  O2     O2        0.729831368453739    0.456672921615592    0.400763715287604  0.0000
  O3     O3        0.232848000386110    0.160000469832668    0.702278491977074  0.0000
  O3     O3        0.770662933972122    0.139963803935888    0.319408506126917  0.0000
  O3     O3        0.810031477438683    0.767270311346875    0.345783248838242  0.0000
  O2     O2        0.298258943453735    0.839205981653222    0.676643788201668  0.0000
  O3     O3        0.053372836663194    0.983436470652856    0.495476532780029  0.0000
  O3     O3        0.962503093805710    0.965676775038009    0.208260258194639  0.0000
  O2     O2        0.057942652647378    0.924042021475482    0.750875016771794  0.0000
  O2     O2        0.084718152414307    0.927117962234081    0.013726578606476  0.0000
