data_c00045.vasp
_audit_creation_method             Generated by GULP
_audit_author_name                 Salvador R. G. Balestra
_symmetry_space_group_name_H-M     'P 1             '
_symmetry_Int_Tables_number        1

loop_
_symmetry_equiv_pos_site_id
_symmetry_equiv_pos_as_xyz
_cell_length_a                        9.0576
_cell_length_b                        7.6584
_cell_length_c                       10.2198
_cell_angle_alpha                   91.3389
_cell_angle_beta                   107.2564
_cell_angle_gamma                   87.7539

loop_
_atom_site_label
_atom_site_type_symbol
_atom_site_fract_x
_atom_site_fract_y
_atom_site_fract_z
_atom_site_charge
  Ge     Ge        0.313819999999964    0.296860000000038    0.309830000000034  0.0000
  Ge     Ge        0.353235315892976    0.711098159367334    0.318813588904697  0.0000
  Ge     Ge        0.335610876883088    0.304580870306043    0.638701946050557  0.0000
  Ge     Ge        0.919695574116207    0.947094247711847    0.389973286953441  0.0000
  Si     Si        0.699255337902427    0.256647244351663    0.712378700716453  0.0000
  Si     Si        0.728871905371978    0.655325523580367    0.713790301538728  0.0000
  Si     Si        0.674242439245230    0.242921384936024    0.396998205510820  0.0000
  Si     Si        0.713718638966015    0.646520528370868    0.407188836199386  0.0000
  Si     Si        0.367644842754505    0.708924775074947    0.635817261394436  0.0000
  Si     Si        0.147152215008659    0.000564668541378    0.695678171085367  0.0000
  Si     Si        0.112929252618996    0.992981830131956    0.174971316379123  0.0000
  Si     Si        0.927811857781176    0.958512150277775    0.870036806087199  0.0000
  O1     O1        0.278267129449636    0.277427477805917    0.464906428224547  0.0000
  O2     O2        0.714469354349933    0.220980564318569    0.561035563080220  0.0000
  O2     O2        0.770998932851947    0.667496108196221    0.572683257379329  0.0000
  O3     O3        0.309003214453149    0.728475036306085    0.472628753109233  0.0000
  O1     O1        0.304617495934738    0.505585089787960    0.256340328272064  0.0000
  O2     O2        0.748063376572632    0.454585766888113    0.762739706325154  0.0000
  O3     O3        0.496429183786181    0.203210863273786    0.328801385370258  0.0000
  O3     O3        0.524956722972756    0.231441364230165    0.709853018119452  0.0000
  O2     O2        0.553037681273256    0.723916296290246    0.690182103454392  0.0000
  O3     O3        0.547767652462588    0.741932526170475    0.349994130434316  0.0000
  O3     O3        0.173440447215296    0.187003111846993    0.187383720521183  0.0000
  O2     O2        0.812399008149318    0.122711643139255    0.815986649436589  0.0000
  O2     O2        0.843592000869202    0.775932458159447    0.826025396874696  0.0000
  O3     O3        0.259459368269214    0.859653687754699    0.196867871442891  0.0000
  O3     O3        0.320593998311459    0.524189613998427    0.677637993482374  0.0000
  O2     O2        0.700659937754490    0.443290798560262    0.363513430853762  0.0000
  O3     O3        0.212441598012860    0.192967097224220    0.704188198035486  0.0000
  O3     O3        0.781996081226999    0.115269974278510    0.338589303809060  0.0000
  O3     O3        0.835491392592423    0.744723758088064    0.353993045720298  0.0000
  O2     O2        0.291110957112709    0.866013835186518    0.702680521160929  0.0000
  O3     O3        0.005364051832588    0.972060002574694    0.562147486353625  0.0000
  O3     O3        0.051702910928473    0.950141255113506    0.302672413960162  0.0000
  O2     O2        0.082657746381647    0.969025083415019    0.824240414992512  0.0000
  O2     O2        0.978320004680588    0.964284884844801    0.034403336989936  0.0000
