data_c00024.vasp
_audit_creation_method             Generated by GULP
_audit_author_name                 Salvador R. G. Balestra
_symmetry_space_group_name_H-M     'P 1             '
_symmetry_Int_Tables_number        1

loop_
_symmetry_equiv_pos_site_id
_symmetry_equiv_pos_as_xyz
_cell_length_a                        9.0596
_cell_length_b                        7.7121
_cell_length_c                       10.0926
_cell_angle_alpha                   89.3880
_cell_angle_beta                   106.4551
_cell_angle_gamma                   91.6253

loop_
_atom_site_label
_atom_site_type_symbol
_atom_site_fract_x
_atom_site_fract_y
_atom_site_fract_z
_atom_site_charge
  Ge     Ge        0.313819999999964    0.296860000000038    0.309830000000034  0.0000
  Ge     Ge        0.685819042149680    0.338433885013241    0.715860160082186  0.0000
  Ge     Ge        0.877482121760326    0.033141266111310    0.391972313294103  0.0000
  Ge     Ge        0.892659528081274    0.027668833563248    0.873815109657559  0.0000
  Si     Si        0.653440149675154    0.742693434069545    0.701703698633241  0.0000
  Si     Si        0.285899431548410    0.696161890109945    0.306855666005937  0.0000
  Si     Si        0.327311541201824    0.293693959142718    0.633314861190380  0.0000
  Si     Si        0.671363298917899    0.338569985411963    0.396952264671973  0.0000
  Si     Si        0.642025115397229    0.737496263567952    0.392086500408476  0.0000
  Si     Si        0.298384772341325    0.690085233318388    0.619865384198631  0.0000
  Si     Si        0.110318982595468    0.991823868891127    0.688899167772290  0.0000
  Si     Si        0.083524330927812    0.000556005339012    0.185685201016073  0.0000
  O3     O3        0.316066171665693    0.244869734168848    0.476893818039929  0.0000
  O3     O3        0.685554892267870    0.275862331356900    0.552535727950229  0.0000
  O2     O2        0.661217551513948    0.799307990826601    0.548900346946833  0.0000
  O2     O2        0.270471576532245    0.735065363553315    0.459166952369878  0.0000
  O3     O3        0.238906678739428    0.500313428829938    0.266552631449589  0.0000
  O3     O3        0.728392796434458    0.557477537473732    0.741372767395130  0.0000
  O3     O3        0.500736516628020    0.296987753966567    0.300856343338100  0.0000
  O3     O3        0.501166635460202    0.292438000164328    0.727971357486811  0.0000
  O2     O2        0.475446715718073    0.728364928288385    0.702956023336567  0.0000
  O2     O2        0.462469250923315    0.734802003086967    0.306571054498121  0.0000
  O3     O3        0.204792452973059    0.157491083345953    0.187859326211859  0.0000
  O1     O1        0.824739100295373    0.232138456919565    0.835237750044236  0.0000
  O3     O3        0.738412159652649    0.887580130187091    0.807650713039451  0.0000
  O2     O2        0.174531418641342    0.820855440131449    0.197641732618349  0.0000
  O2     O2        0.258502497312689    0.486682785289865    0.636381211501455  0.0000
  O2     O2        0.707432984263209    0.544778946579801    0.394844131750062  0.0000
  O2     O2        0.224905340243825    0.155525306163584    0.690924590682772  0.0000
  O3     O3        0.793493489371610    0.232124120758215    0.346569669129702  0.0000
  O3     O3        0.739597625231563    0.870442070475909    0.328042572155397  0.0000
  O2     O2        0.189278437138013    0.809218879734315    0.678455451986312  0.0000
  O3     O3        0.953135574437757    0.011313134769364    0.567972538996933  0.0000
  O3     O3        0.026248567730725    0.024726434399335    0.320713103697395  0.0000
  O3     O3        0.057960296225049    0.989150927460151    0.827352901219405  0.0000
  O3     O3        0.941800397403999    0.001151693182025    0.051222078839315  0.0000
