data_c00037.vasp
_audit_creation_method             Generated by GULP
_audit_author_name                 Salvador R. G. Balestra
_symmetry_space_group_name_H-M     'P 1             '
_symmetry_Int_Tables_number        1

loop_
_symmetry_equiv_pos_site_id
_symmetry_equiv_pos_as_xyz
_cell_length_a                        9.0423
_cell_length_b                        7.7389
_cell_length_c                       10.2878
_cell_angle_alpha                   87.1641
_cell_angle_beta                   107.7366
_cell_angle_gamma                   89.3953

loop_
_atom_site_label
_atom_site_type_symbol
_atom_site_fract_x
_atom_site_fract_y
_atom_site_fract_z
_atom_site_charge
  Ge     Ge        0.313819999999964    0.296860000000038    0.309830000000034  0.0000
  Ge     Ge        0.722004296397734    0.623028429215008    0.731144725138474  0.0000
  Ge     Ge        0.691418262435870    0.260699983508864    0.399543291074580  0.0000
  Ge     Ge        0.930117374341494    0.930379230828017    0.875460347942695  0.0000
  Si     Si        0.697053304262610    0.228885953624081    0.705690095898101  0.0000
  Si     Si        0.351971724937719    0.697315386589118    0.327814337447558  0.0000
  Si     Si        0.330128533592405    0.275454635324660    0.616218690272127  0.0000
  Si     Si        0.711774037657110    0.659220467229670    0.414199404193962  0.0000
  Si     Si        0.356655859087737    0.667427494885384    0.636777689613680  0.0000
  Si     Si        0.916607672031781    0.965529738492183    0.388421439017412  0.0000
  Si     Si        0.146227735264899    0.967736273191571    0.685043190416966  0.0000
  Si     Si        0.117103807992420    0.990381591616515    0.187906225662728  0.0000
  O3     O3        0.254743699518570    0.270720014536508    0.454928812738013  0.0000
  O3     O3        0.757732824107141    0.227483080217385    0.575058131785664  0.0000
  O3     O3        0.759916673870710    0.652576428154621    0.577439086608535  0.0000
  O2     O2        0.319792698378138    0.699321712619423    0.473793690523817  0.0000
  O3     O3        0.304023534055828    0.515068859750393    0.262586432038023  0.0000
  O3     O3        0.740631723845464    0.405743506755574    0.781574321736888  0.0000
  O1     O1        0.498766946553178    0.221063864959877    0.333717676551664  0.0000
  O2     O2        0.510144865325241    0.222298647880404    0.646071126149466  0.0000
  O3     O3        0.535246456141363    0.698067599047719    0.713775273701915  0.0000
  O2     O2        0.533581196030143    0.728650612359713    0.353828286386171  0.0000
  O3     O3        0.186425273930487    0.180001561108889    0.187483252973320  0.0000
  O3     O3        0.769820564729177    0.066206319666896    0.804998343370092  0.0000
  O1     O1        0.859667657872600    0.727110018827637    0.849995485917407  0.0000
  O2     O2        0.259523300582913    0.849818475889235    0.222493535783244  0.0000
  O2     O2        0.315320939351753    0.468184569503348    0.667233706057082  0.0000
  O3     O3        0.725591803482071    0.473143057770782    0.359028814666528  0.0000
  O2     O2        0.247801403539858    0.139552144235025    0.692895245196161  0.0000
  O3     O3        0.799652793121709    0.127369126092199    0.332795321198905  0.0000
  O2     O2        0.820076794648123    0.790112576586744    0.361747894417574  0.0000
  O2     O2        0.250338872227018    0.795429920977561    0.690369713934800  0.0000
  O2     O2        0.997991202622764    0.976841561468958    0.550556618133867  0.0000
  O2     O2        0.043235402043831    0.962700921018607    0.310620317067713  0.0000
  O3     O3        0.086271594373765    0.963794161855266    0.815263048222178  0.0000
  O3     O3        0.990103966723904    0.961040596318292    0.047384147516728  0.0000
