data_c00080.vasp
_audit_creation_method             Generated by GULP
_audit_author_name                 Salvador R. G. Balestra
_symmetry_space_group_name_H-M     'P 1             '
_symmetry_Int_Tables_number        1

loop_
_symmetry_equiv_pos_site_id
_symmetry_equiv_pos_as_xyz
_cell_length_a                        9.0723
_cell_length_b                        7.7128
_cell_length_c                       10.1204
_cell_angle_alpha                   87.0621
_cell_angle_beta                   106.4898
_cell_angle_gamma                   90.9837

loop_
_atom_site_label
_atom_site_type_symbol
_atom_site_fract_x
_atom_site_fract_y
_atom_site_fract_z
_atom_site_charge
  Ge     Ge        0.313819999999964    0.296860000000038    0.309830000000034  0.0000
  Ge     Ge        0.323891467374889    0.261265151272040    0.631692535028051  0.0000
  Ge     Ge        0.068742738165397    0.012950803950749    0.185342094868432  0.0000
  Ge     Ge        0.873583549553135    0.996479825457113    0.866240095484585  0.0000
  Si     Si        0.670325952755499    0.316846560978073    0.712905467420112  0.0000
  Si     Si        0.645995453525272    0.706344307748963    0.715642450055211  0.0000
  Si     Si        0.289288094307537    0.706721568674581    0.316613850589486  0.0000
  Si     Si        0.660372642514594    0.347719433164325    0.397361860435361  0.0000
  Si     Si        0.645850665357127    0.738434560668024    0.405721875324211  0.0000
  Si     Si        0.289832104497435    0.671311254976989    0.621558271776776  0.0000
  Si     Si        0.872724417964658    0.035933399662159    0.404513951156721  0.0000
  Si     Si        0.103401060165532    0.964363786526803    0.695921395294545  0.0000
  O1     O1        0.303476931625898    0.206376098193839    0.466249280898922  0.0000
  O2     O2        0.625980956666164    0.322046039465026    0.545596007055005  0.0000
  O2     O2        0.669865813438303    0.764619223262049    0.567367997827007  0.0000
  O2     O2        0.265130075359084    0.745615747108115    0.464845247760184  0.0000
  O3     O3        0.251861260657220    0.508818720354895    0.287111194479111  0.0000
  O2     O2        0.712907008228328    0.512746790236909    0.762212214783242  0.0000
  O3     O3        0.499533286738257    0.299898415365041    0.292416511103958  0.0000
  O3     O3        0.511447670924488    0.252096545684691    0.738407533158258  0.0000
  O2     O2        0.466499876873653    0.704275685770146    0.707424885335160  0.0000
  O2     O2        0.466412512761533    0.754377556369166    0.322483465229147  0.0000
  O1     O1        0.194755630031637    0.180547474733898    0.184205252280872  0.0000
  O3     O3        0.811127401636666    0.196601299813973    0.787067880280326  0.0000
  O3     O3        0.732467144085040    0.840148357816806    0.824674627937011  0.0000
  O3     O3        0.173939730322243    0.823924686548314    0.201417771309712  0.0000
  O3     O3        0.251801900431021    0.469847122613497    0.627183271657516  0.0000
  O2     O2        0.707304381906334    0.550355863990999    0.379157805024177  0.0000
  O3     O3        0.223342574523723    0.120047115078261    0.710745448825355  0.0000
  O2     O2        0.795790245708309    0.227216545567519    0.381722835621484  0.0000
  O2     O2        0.741866754922100    0.889043240228905    0.350788559194529  0.0000
  O2     O2        0.180366608372793    0.780851591457903    0.685156749280601  0.0000
  O2     O2        0.952436759936432    0.001790023545643    0.567119920054431  0.0000
  O3     O3        0.998233878184352    0.036988505002677    0.325130243617076  0.0000
  O3     O3        0.041270740950489    0.946090847435263    0.828786692922938  0.0000
  O1     O1        0.917986208187013    0.013681445757072    0.040462586706997  0.0000
