data_c00061.vasp
_audit_creation_method             Generated by GULP
_audit_author_name                 Salvador R. G. Balestra
_symmetry_space_group_name_H-M     'P 1             '
_symmetry_Int_Tables_number        1

loop_
_symmetry_equiv_pos_site_id
_symmetry_equiv_pos_as_xyz
_cell_length_a                        9.1288
_cell_length_b                        7.6634
_cell_length_c                       10.3489
_cell_angle_alpha                   89.8853
_cell_angle_beta                   108.8504
_cell_angle_gamma                   88.5237

loop_
_atom_site_label
_atom_site_type_symbol
_atom_site_fract_x
_atom_site_fract_y
_atom_site_fract_z
_atom_site_charge
  Ge     Ge        0.313819999999964    0.296860000000038    0.309830000000034  0.0000
  Ge     Ge        0.338411565315627    0.300014279967285    0.633200251212810  0.0000
  Ge     Ge        0.687059097925313    0.248451971199560    0.399081961615022  0.0000
  Ge     Ge        0.377368473676762    0.708985315154255    0.638170713414202  0.0000
  Si     Si        0.703995850296925    0.243527515377481    0.711315924358951  0.0000
  Si     Si        0.737515289976719    0.644325200336741    0.716064028129120  0.0000
  Si     Si        0.354285543566251    0.700081782087295    0.323309495873632  0.0000
  Si     Si        0.712984730009885    0.651544315232433    0.408903829333254  0.0000
  Si     Si        0.917327920855918    0.952235614495503    0.377240281905426  0.0000
  Si     Si        0.145201902338235    0.999216660386335    0.681584482795598  0.0000
  Si     Si        0.115581193481815    0.984497559484360    0.177939059372364  0.0000
  Si     Si        0.935885293142557    0.947471712069437    0.865096158316128  0.0000
  O1     O1        0.271733199800244    0.288078078623628    0.458785172003275  0.0000
  O3     O3        0.746601452054295    0.219039311656370    0.574089761459968  0.0000
  O2     O2        0.773883624482984    0.642747908833381    0.573712121405022  0.0000
  O3     O3        0.311659064351619    0.710451529047502    0.461852206136725  0.0000
  O3     O3        0.312181620801463    0.511694580122912    0.257361115768742  0.0000
  O2     O2        0.737964031685776    0.443382062949073    0.765383717269112  0.0000
  O1     O1        0.495254601928690    0.208049071182430    0.333434033865242  0.0000
  O3     O3        0.524991716635991    0.209478969260662    0.684328825073246  0.0000
  O3     O3        0.574096642039673    0.738329618392293    0.695969930585732  0.0000
  O2     O2        0.537721750757885    0.730119567842354    0.359233070074715  0.0000
  O3     O3        0.175416773211558    0.179282017227857    0.190202214919279  0.0000
  O2     O2        0.808537925906701    0.104742710820633    0.821804884341735  0.0000
  O2     O2        0.865361924225875    0.756956612254037    0.824826837758500  0.0000
  O2     O2        0.265517536198592    0.853220314325219    0.219094942689100  0.0000
  O1     O1        0.339470132805167    0.508138078246495    0.689792871151732  0.0000
  O3     O3        0.717892952677510    0.459132215087170    0.353984697106769  0.0000
  O3     O3        0.209691654525796    0.191752750146941    0.692601647545632  0.0000
  O3     O3        0.799176229346674    0.115014560176353    0.334146615843523  0.0000
  O2     O2        0.820950387865750    0.775144136261048    0.356408659916481  0.0000
  O3     O3        0.292952235193137    0.870404847396696    0.704953619280909  0.0000
  O2     O2        0.022219203086637    0.962812013001604    0.534356814901541  0.0000
  O2     O2        0.021903987304472    0.944774309281338    0.281023848293918  0.0000
  O2     O2        0.071064109443359    0.973807552709115    0.800221207186627  0.0000
  O2     O2        0.006465543353023    0.946898489988877    0.027049944514624  0.0000
