data_c00065.vasp
_audit_creation_method             Generated by GULP
_audit_author_name                 Salvador R. G. Balestra
_symmetry_space_group_name_H-M     'P 1             '
_symmetry_Int_Tables_number        1

loop_
_symmetry_equiv_pos_site_id
_symmetry_equiv_pos_as_xyz
_cell_length_a                        9.1191
_cell_length_b                        7.7457
_cell_length_c                       10.2587
_cell_angle_alpha                   89.1632
_cell_angle_beta                   107.8509
_cell_angle_gamma                   89.2763

loop_
_atom_site_label
_atom_site_type_symbol
_atom_site_fract_x
_atom_site_fract_y
_atom_site_fract_z
_atom_site_charge
  Ge     Ge        0.313819999999964    0.296860000000038    0.309830000000034  0.0000
  Ge     Ge        0.333616152778891    0.289754841635050    0.637671950377353  0.0000
  Ge     Ge        0.681846643860837    0.278199005902751    0.402655433881926  0.0000
  Ge     Ge        0.919931635031073    0.958560976142563    0.876017143355299  0.0000
  Si     Si        0.691122519579001    0.263565426762160    0.715597836621853  0.0000
  Si     Si        0.703717633195329    0.664451110970353    0.718618055393998  0.0000
  Si     Si        0.336886221022005    0.695855011153903    0.324119653408502  0.0000
  Si     Si        0.695570755050543    0.679333221843357    0.415852437839507  0.0000
  Si     Si        0.348853653308690    0.690655313497624    0.634665003600789  0.0000
  Si     Si        0.904466862493973    0.976815466253253    0.391974441640251  0.0000
  Si     Si        0.136104284845529    0.985051458809936    0.689835032894601  0.0000
  Si     Si        0.106856197022519    0.987951697274779    0.192795664000237  0.0000
  O1     O1        0.310381945523517    0.240877726439997    0.471108076065338  0.0000
  O3     O3        0.681651443227633    0.208067203217159    0.563278801034798  0.0000
  O2     O2        0.716721640826041    0.731447781141566    0.572571217278517  0.0000
  O2     O2        0.328916527249984    0.729741480183242    0.476034507917546  0.0000
  O3     O3        0.263972810780519    0.513352855860229    0.274653162945807  0.0000
  O2     O2        0.747149839022024    0.461815879133875    0.735880156501757  0.0000
  O1     O1        0.496400658434729    0.266933266959674    0.298684733544327  0.0000
  O3     O3        0.523156625847057    0.251022559990832    0.733679151671473  0.0000
  O2     O2        0.529198359396392    0.693131399494774    0.721442336030753  0.0000
  O2     O2        0.515302265555987    0.692898999428707    0.327530425713973  0.0000
  O3     O3        0.179374959267820    0.175334943304252    0.193789844512284  0.0000
  O3     O3        0.810819381472144    0.143588346212289    0.825518759817513  0.0000
  O3     O3        0.815913109115556    0.772075303309261    0.836064114967680  0.0000
  O2     O2        0.248964208533660    0.849503457431592    0.222791497486744  0.0000
  O3     O3        0.283428516526679    0.504488897617313    0.650347784898834  0.0000
  O3     O3        0.752004420213248    0.485776763412352    0.407470886438170  0.0000
  O3     O3        0.211591147692576    0.171172496824560    0.700461579699426  0.0000
  O3     O3        0.804177965211164    0.150028366238999    0.345994011634303  0.0000
  O2     O2        0.792033597668944    0.812864423614503    0.354913337848390  0.0000
  O2     O2        0.263965881830425    0.839858806684351    0.691064947290843  0.0000
  O2     O2        0.988552222686316    0.977474758363843    0.554782831597175  0.0000
  O2     O2        0.030373194159622    0.964498661940278    0.313973455277953  0.0000
  O3     O3        0.078959673710421    0.953823541719108    0.819814523076538  0.0000
  O3     O3        0.980078446994625    0.955153407122779    0.051807227375199  0.0000
