data_c00048.vasp
_audit_creation_method             Generated by GULP
_audit_author_name                 Salvador R. G. Balestra
_symmetry_space_group_name_H-M     'P 1             '
_symmetry_Int_Tables_number        1

loop_
_symmetry_equiv_pos_site_id
_symmetry_equiv_pos_as_xyz
_cell_length_a                        8.9597
_cell_length_b                        7.6894
_cell_length_c                       10.2020
_cell_angle_alpha                   88.2687
_cell_angle_beta                   107.3221
_cell_angle_gamma                   91.6923

loop_
_atom_site_label
_atom_site_type_symbol
_atom_site_fract_x
_atom_site_fract_y
_atom_site_fract_z
_atom_site_charge
  Ge     Ge        0.313819999999964    0.296860000000038    0.309830000000034  0.0000
  Ge     Ge        0.274476043606094    0.714429910679687    0.302328348007164  0.0000
  Ge     Ge        0.337392520184073    0.283836230834228    0.632048115585584  0.0000
  Ge     Ge        0.881906935930475    0.038568928630328    0.858219807771420  0.0000
  Si     Si        0.689753209936786    0.359365539509796    0.709495362263404  0.0000
  Si     Si        0.647861188109733    0.746118841868984    0.699730384397572  0.0000
  Si     Si        0.667939237400128    0.369195182296302    0.393636870271733  0.0000
  Si     Si        0.641855473800600    0.763521034799964    0.389430948755085  0.0000
  Si     Si        0.288080837049331    0.689161238621104    0.613384643280072  0.0000
  Si     Si        0.879764354392695    0.061204314345341    0.390734208423940  0.0000
  Si     Si        0.112345713583086    0.988268818183788    0.687365482911781  0.0000
  Si     Si        0.063702404834074    0.021534118512309    0.173361796492147  0.0000
  O1     O1        0.317508777136323    0.217156938328404    0.469461771242427  0.0000
  O2     O2        0.646413292103939    0.340561328097451    0.544575752561073  0.0000
  O2     O2        0.654694293244716    0.800181603959088    0.547497512121219  0.0000
  O3     O3        0.261913734021843    0.766941261716857    0.461618384614867  0.0000
  O1     O1        0.235349081122369    0.499569262760190    0.275562580384191  0.0000
  O2     O2        0.733209084983818    0.561759083234788    0.747194543552141  0.0000
  O3     O3        0.501261785294734    0.316931519413637    0.292294827009499  0.0000
  O3     O3        0.528725931121677    0.297892345707943    0.737216939171302  0.0000
  O2     O2        0.469709398170141    0.719235591425442    0.699786402563904  0.0000
  O3     O3        0.463268368104474    0.770908596111716    0.298645691279718  0.0000
  O3     O3        0.207294015541919    0.156539481052481    0.186850217576395  0.0000
  O3     O3        0.832801874201793    0.246075378624499    0.792800872816776  0.0000
  O3     O3        0.725799186833983    0.895816396260897    0.802231320692545  0.0000
  O3     O3        0.133189891528194    0.830341197288636    0.183161046774287  0.0000
  O3     O3        0.249441989202478    0.485805855598138    0.614462957082748  0.0000
  O2     O2        0.709236775158573    0.573429885786164    0.373746039485554  0.0000
  O3     O3        0.245015495227394    0.136760263051663    0.713602791846367  0.0000
  O2     O2        0.803570269385678    0.251795200520460    0.371802747970911  0.0000
  O2     O2        0.746854925616651    0.910587634082853    0.340778023253234  0.0000
  O2     O2        0.179930218320540    0.798022306864185    0.680303977531336  0.0000
  O2     O2        0.971964587441978    0.034805595144733    0.550289105847527  0.0000
  O2     O2        0.996904601223549    0.061108681823087    0.300233910025709  0.0000
  O3     O3        0.041872156340566    0.975586705840234    0.813651446121256  0.0000
  O3     O3        0.927207271817188    0.046348163411177    0.033605952253094  0.0000
