data_c00085.vasp
_audit_creation_method             Generated by GULP
_audit_author_name                 Salvador R. G. Balestra
_symmetry_space_group_name_H-M     'P 1             '
_symmetry_Int_Tables_number        1

loop_
_symmetry_equiv_pos_site_id
_symmetry_equiv_pos_as_xyz
_cell_length_a                        8.9895
_cell_length_b                        7.6643
_cell_length_c                       10.2888
_cell_angle_alpha                   87.9014
_cell_angle_beta                   106.5227
_cell_angle_gamma                   91.9736

loop_
_atom_site_label
_atom_site_type_symbol
_atom_site_fract_x
_atom_site_fract_y
_atom_site_fract_z
_atom_site_charge
  Ge     Ge        0.313819999999964    0.296860000000038    0.309830000000034  0.0000
  Ge     Ge        0.683999941717474    0.358627040181289    0.400589475545296  0.0000
  Ge     Ge        0.644474005312395    0.773802890932380    0.400218227040738  0.0000
  Ge     Ge        0.877404473717635    0.020634131754584    0.863296220623851  0.0000
  Si     Si        0.678598879852497    0.336174455236352    0.708904825988552  0.0000
  Si     Si        0.644763980800028    0.733883128894290    0.707393622161388  0.0000
  Si     Si        0.282784238211469    0.706299099660599    0.308998311866983  0.0000
  Si     Si        0.316506171275433    0.286336446767620    0.619571324603809  0.0000
  Si     Si        0.284254646168185    0.682668549736600    0.611920001571655  0.0000
  Si     Si        0.888121863172301    0.060826096635494    0.378997949073847  0.0000
  Si     Si        0.099042623014339    0.986803176174026    0.673760010002224  0.0000
  Si     Si        0.080372141552514    0.009012664077716    0.173766009966631  0.0000
  O3     O3        0.262708859812761    0.263630491523190    0.459184654856265  0.0000
  O3     O3        0.733347598129372    0.333702846390951    0.575132406766982  0.0000
  O3     O3        0.700469959292980    0.781788413087990    0.575340811164911  0.0000
  O2     O2        0.232673181094189    0.694718302649938    0.448842851674272  0.0000
  O3     O3        0.288565512716486    0.514777480187282    0.257178153660438  0.0000
  O2     O2        0.684510065518132    0.534534253999697    0.757617514754971  0.0000
  O1     O1        0.505919731923184    0.258902139334642    0.336016455641000  0.0000
  O2     O2        0.501200652983010    0.261176799644806    0.674413261339566  0.0000
  O2     O2        0.459462583053176    0.756363684806559    0.669397641060592  0.0000
  O3     O3        0.447926619879524    0.806211965488973    0.339976650726682  0.0000
  O3     O3        0.206203502965916    0.165525484135969    0.183090443314111  0.0000
  O3     O3        0.792900333621555    0.220949251047485    0.823235374501526  0.0000
  O3     O3        0.733874561191421    0.860548058660046    0.824042129987946  0.0000
  O2     O2        0.161215252013537    0.820911462438003    0.195534852801548  0.0000
  O2     O2        0.272045388018722    0.479006078098327    0.656591362962690  0.0000
  O1     O1        0.682926014497599    0.572477545121286    0.351976604392216  0.0000
  O2     O2        0.230352640111081    0.140320990068265    0.690113174103945  0.0000
  O3     O3        0.827267312569089    0.255822741838463    0.352820108134217  0.0000
  O3     O3        0.739716061235145    0.931164464801999    0.330287223044059  0.0000
  O2     O2        0.172014628771175    0.797432484443714    0.669216687795557  0.0000
  O2     O2        0.958075915998305    0.018051401415561    0.539526707234470  0.0000
  O2     O2        0.014822603878437    0.035860544324201    0.301727747920154  0.0000
  O3     O3        0.032934472789559    0.986677911750219    0.801723178749131  0.0000
  O3     O3        0.945485482504997    0.014704232323733    0.037290777497849  0.0000
