data_c00034.vasp
_audit_creation_method             Generated by GULP
_audit_author_name                 Salvador R. G. Balestra
_symmetry_space_group_name_H-M     'P 1             '
_symmetry_Int_Tables_number        1

loop_
_symmetry_equiv_pos_site_id
_symmetry_equiv_pos_as_xyz
_cell_length_a                        9.1174
_cell_length_b                        7.7096
_cell_length_c                       10.3296
_cell_angle_alpha                   86.6361
_cell_angle_beta                   109.5693
_cell_angle_gamma                   90.2643

loop_
_atom_site_label
_atom_site_type_symbol
_atom_site_fract_x
_atom_site_fract_y
_atom_site_fract_z
_atom_site_charge
  Ge     Ge        0.313819999999964    0.296860000000038    0.309830000000034  0.0000
  Ge     Ge        0.721749604165070    0.642139870977756    0.728666767662610  0.0000
  Ge     Ge        0.687638864423349    0.284231233014335    0.395528363775711  0.0000
  Ge     Ge        0.896769810757591    0.978201182888170    0.350174434750301  0.0000
  Si     Si        0.710226106073002    0.234391252584481    0.707280051515469  0.0000
  Si     Si        0.330683867116269    0.687993210824605    0.340248414763422  0.0000
  Si     Si        0.351430486521595    0.251415768193714    0.631133740850050  0.0000
  Si     Si        0.690985380679601    0.681590562218164    0.417776617611290  0.0000
  Si     Si        0.359009164469507    0.645657411183170    0.651952584549989  0.0000
  Si     Si        0.146284742267236    0.944051924601541    0.660439849243862  0.0000
  Si     Si        0.111480653376701    0.989987317725450    0.166697875900643  0.0000
  Si     Si        0.942008546995402    0.936563219764275    0.856615768225901  0.0000
  O3     O3        0.316697066383653    0.223322787162141    0.472082926300023  0.0000
  O3     O3        0.706828186721970    0.189772513581445    0.557158104974554  0.0000
  O3     O3        0.724409900514234    0.734966795923615    0.572892947782410  0.0000
  O2     O2        0.338280748286054    0.711788449752877    0.495949300716737  0.0000
  O3     O3        0.247280065748532    0.511916029883483    0.284233405671077  0.0000
  O3     O3        0.774611981918178    0.425771761996027    0.742430291988533  0.0000
  O1     O1        0.494584944689130    0.273538196845627    0.296807078630117  0.0000
  O2     O2        0.535106328233526    0.224905789499273    0.712788109494014  0.0000
  O3     O3        0.538536253055913    0.658581308940782    0.742782430815732  0.0000
  O2     O2        0.505942957788565    0.661418976264036    0.341276589125266  0.0000
  O3     O3        0.173485858387713    0.183466698350469    0.191999798911929  0.0000
  O2     O2        0.814322873526690    0.092194265680245    0.819702121601548  0.0000
  O3     O3        0.854860612266585    0.755302603014762    0.852854643299767  0.0000
  O2     O2        0.254932431883072    0.859999248083184    0.249902054901570  0.0000
  O2     O2        0.302330347896170    0.446203837510607    0.654160378252880  0.0000
  O3     O3        0.760356635713673    0.491905658744332    0.416172721163617  0.0000
  O2     O2        0.254536423181380    0.113767829633609    0.691886234655262  0.0000
  O1     O1        0.807664596900320    0.176369976420553    0.330809975740043  0.0000
  O3     O3        0.755964694716484    0.823558272442236    0.335239752687108  0.0000
  O2     O2        0.252063236443438    0.767661085757640    0.706411522457445  0.0000
  O3     O3        0.049645935865680    0.944536608733744    0.500652866640358  0.0000
  O3     O3        0.965161445284933    0.955680572399352    0.215599549997197  0.0000
  O2     O2        0.032645603814420    0.946700851767923    0.747965743832004  0.0000
  O2     O2        0.065266668491657    0.956470310075439    0.006551233855295  0.0000
