data_c00087.vasp
_audit_creation_method             Generated by GULP
_audit_author_name                 Salvador R. G. Balestra
_symmetry_space_group_name_H-M     'P 1             '
_symmetry_Int_Tables_number        1

loop_
_symmetry_equiv_pos_site_id
_symmetry_equiv_pos_as_xyz
_cell_length_a                        9.1219
_cell_length_b                        7.7315
_cell_length_c                       10.3024
_cell_angle_alpha                   87.6509
_cell_angle_beta                   108.7777
_cell_angle_gamma                   91.5687

loop_
_atom_site_label
_atom_site_type_symbol
_atom_site_fract_x
_atom_site_fract_y
_atom_site_fract_z
_atom_site_charge
  Ge     Ge        0.313819999999964    0.296860000000038    0.309830000000034  0.0000
  Ge     Ge        0.686336546488346    0.324859032499292    0.390099520425636  0.0000
  Ge     Ge        0.332960724711507    0.673086770787231    0.632684559445563  0.0000
  Ge     Ge        0.130155913517536    0.975902536269194    0.685609715427201  0.0000
  Si     Si        0.708569795685352    0.300110104499346    0.706457311777663  0.0000
  Si     Si        0.693778896792548    0.692935113884379    0.713710357470589  0.0000
  Si     Si        0.307297546644740    0.702282775688235    0.320720003171235  0.0000
  Si     Si        0.349010933766793    0.268717019297624    0.624122866474530  0.0000
  Si     Si        0.664295399911669    0.721023718171882    0.399461074591476  0.0000
  Si     Si        0.887021706632617    0.019844310474359    0.377509717441225  0.0000
  Si     Si        0.087683415817049    0.996619042813456    0.179734469382408  0.0000
  Si     Si        0.913222937084634    0.993985862290190    0.867830262042276  0.0000
  O3     O3        0.318683035591566    0.212223278812328    0.469268898391708  0.0000
  O3     O3        0.717059008334044    0.259133522283422    0.559008254294697  0.0000
  O2     O2        0.680556167827617    0.746771490222178    0.557780859517970  0.0000
  O3     O3        0.306521692351554    0.757204998567292    0.468678751560106  0.0000
  O3     O3        0.248213320371353    0.507062317243706    0.291811958982751  0.0000
  O2     O2        0.761884588644969    0.498277289673368    0.746042745418466  0.0000
  O1     O1        0.496116316279540    0.292108666624826    0.296889034937220  0.0000
  O2     O2        0.532291169995278    0.279121341952176    0.704421668526878  0.0000
  O3     O3        0.525978051630064    0.700812918410931    0.729980846225862  0.0000
  O2     O2        0.482300420496034    0.714492069567413    0.313241242219854  0.0000
  O3     O3        0.185069902922659    0.173253382688560    0.188198433107880  0.0000
  O2     O2        0.816123957024009    0.168736721467013    0.818368083664199  0.0000
  O2     O2        0.811634327402001    0.822956591189159    0.813295786899130  0.0000
  O2     O2        0.203335114732649    0.835201258901663    0.206429427732191  0.0000
  O3     O3        0.279870140901612    0.457331611686906    0.622998724686241  0.0000
  O3     O3        0.737259742341462    0.541230532012857    0.382603517239262  0.0000
  O3     O3        0.274162770108519    0.130207616366868    0.702181214763834  0.0000
  O3     O3        0.810701819046845    0.206277131424944    0.334672244167818  0.0000
  O2     O2        0.746746003764903    0.878171205735246    0.342807954177786  0.0000
  O1     O1        0.212636900642483    0.777245045245721    0.698450468020186  0.0000
  O3     O3        0.977629983742511    0.006049531735761    0.538055203250215  0.0000
  O2     O2        0.001727919089094    0.985517600185156    0.293448394837692  0.0000
  O3     O3        0.064397703625057    0.998196311695483    0.822849426077368  0.0000
  O2     O2        0.960617154449246    0.983204780519164    0.031729721318713  0.0000
