data_c00031.vasp
_audit_creation_method             Generated by GULP
_audit_author_name                 Salvador R. G. Balestra
_symmetry_space_group_name_H-M     'P 1             '
_symmetry_Int_Tables_number        1

loop_
_symmetry_equiv_pos_site_id
_symmetry_equiv_pos_as_xyz
_cell_length_a                        9.2132
_cell_length_b                        7.6832
_cell_length_c                       10.1490
_cell_angle_alpha                   86.2207
_cell_angle_beta                   109.4193
_cell_angle_gamma                   88.4045

loop_
_atom_site_label
_atom_site_type_symbol
_atom_site_fract_x
_atom_site_fract_y
_atom_site_fract_z
_atom_site_charge
  Ge     Ge        0.313819999999964    0.296860000000038    0.309830000000034  0.0000
  Ge     Ge        0.721727564344885    0.621543170635072    0.734017261905259  0.0000
  Ge     Ge        0.333768541859857    0.250796936491839    0.632071020963679  0.0000
  Ge     Ge        0.080898137053240    0.016417199833070    0.174674723837106  0.0000
  Si     Si        0.682339884888346    0.235550864795033    0.711020338994852  0.0000
  Si     Si        0.329583288429091    0.708068472336624    0.335041751327221  0.0000
  Si     Si        0.659956725564521    0.293414476236518    0.396051368420051  0.0000
  Si     Si        0.685911920721429    0.679543462961089    0.409776814567663  0.0000
  Si     Si        0.355961258757468    0.658790631978512    0.646671616482397  0.0000
  Si     Si        0.889122310315845    0.979792249827631    0.391318510087337  0.0000
  Si     Si        0.142931765048693    0.945139823688957    0.692199340936573  0.0000
  Si     Si        0.918031704667616    0.927095393385828    0.859128904841195  0.0000
  O1     O1        0.299703663651561    0.200409777361523    0.463119729193159  0.0000
  O2     O2        0.622622514931908    0.297010251050262    0.542663976610648  0.0000
  O3     O3        0.738222227570121    0.692567516238063    0.575414681707505  0.0000
  O2     O2        0.329254499750511    0.745413511648059    0.489789070844925  0.0000
  O3     O3        0.272235533143062    0.517606630450437    0.299648284792704  0.0000
  O3     O3        0.770373047883934    0.400117351971764    0.782272333611593  0.0000
  O3     O3        0.493372443096023    0.263880486892847    0.288551930529509  0.0000
  O3     O3        0.524253303063395    0.203484627919305    0.738912560260674  0.0000
  O3     O3        0.535727770182487    0.646578596993669    0.734503448148700  0.0000
  O2     O2        0.504001422050440    0.725790145411811    0.335605563730401  0.0000
  O1     O1        0.177421206829827    0.203201567227531    0.179684720550523  0.0000
  O2     O2        0.789167289185261    0.059519705516186    0.745739654003002  0.0000
  O3     O3        0.847930965486000    0.738755254672133    0.856879253376481  0.0000
  O3     O3        0.217867493611599    0.845707231616696    0.221438569666108  0.0000
  O3     O3        0.287794732327972    0.469402991927759    0.638374974305626  0.0000
  O2     O2        0.722399464772534    0.484537886178607    0.371392487185973  0.0000
  O3     O3        0.217315291506779    0.130384952773975    0.701291890929475  0.0000
  O2     O2        0.789687264269290    0.151009968034668    0.400916093310972  0.0000
  O2     O2        0.779879472048862    0.817215563466363    0.347604708231901  0.0000
  O2     O2        0.272448468857704    0.788665751244024    0.720133674054674  0.0000
  O2     O2        0.015909863803883    0.928862028134938    0.541291070717916  0.0000
  O3     O3        0.964478361654169    0.024869397831640    0.275963705835069  0.0000
  O2     O2        0.070804491932943    0.918915599209945    0.815660314393842  0.0000
  O3     O3        0.954247504712715    0.998028337629104    0.008907290943108  0.0000
