data_c00035.vasp
_audit_creation_method             Generated by GULP
_audit_author_name                 Salvador R. G. Balestra
_symmetry_space_group_name_H-M     'P 1             '
_symmetry_Int_Tables_number        1

loop_
_symmetry_equiv_pos_site_id
_symmetry_equiv_pos_as_xyz
_cell_length_a                        9.0961
_cell_length_b                        7.7597
_cell_length_c                       10.4016
_cell_angle_alpha                   86.9596
_cell_angle_beta                   109.3576
_cell_angle_gamma                   90.0583

loop_
_atom_site_label
_atom_site_type_symbol
_atom_site_fract_x
_atom_site_fract_y
_atom_site_fract_z
_atom_site_charge
  Ge     Ge        0.313819999999964    0.296860000000038    0.309830000000034  0.0000
  Ge     Ge        0.726655580565718    0.643693942816406    0.721561618419017  0.0000
  Ge     Ge        0.693268637998034    0.284787528084198    0.390206497098836  0.0000
  Ge     Ge        0.149468665242700    0.963461518405391    0.679957567847163  0.0000
  Si     Si        0.716403696778612    0.247742305288824    0.698886154208734  0.0000
  Si     Si        0.336648619259507    0.699673270167979    0.329416768493235  0.0000
  Si     Si        0.350492137430952    0.265404643346747    0.618341814162974  0.0000
  Si     Si        0.702464726522099    0.680388623068354    0.408776531781807  0.0000
  Si     Si        0.358346083828394    0.664063961449807    0.634047319831479  0.0000
  Si     Si        0.904490898562216    0.985829606550782    0.371492535605560  0.0000
  Si     Si        0.108864615661117    0.995031089726969    0.178299626695481  0.0000
  Si     Si        0.936203073923660    0.943786842966477    0.868178358888462  0.0000
  O3     O3        0.268080227653456    0.251016091718552    0.457012313726380  0.0000
  O3     O3        0.767659975045129    0.255232660819978    0.566099316226162  0.0000
  O3     O3        0.769782886285770    0.674003709460401    0.572432975411691  0.0000
  O2     O2        0.299978810516705    0.710217568763455    0.470810080957729  0.0000
  O3     O3        0.289098400609046    0.515932866487690    0.267525840506803  0.0000
  O3     O3        0.752142584786388    0.426368277104755    0.772602229062943  0.0000
  O1     O1        0.500245677945855    0.237757350660872    0.326375579862110  0.0000
  O2     O2        0.530973345130798    0.217790340955099    0.646151140400142  0.0000
  O3     O3        0.538823844228036    0.709024387470063    0.700808360573559  0.0000
  O2     O2        0.519718321899697    0.728312257344891    0.364185973053377  0.0000
  O3     O3        0.183197979124286    0.182107626892849    0.185474862346340  0.0000
  O2     O2        0.801048369680068    0.086241980950496    0.796940651909111  0.0000
  O3     O3        0.860910208418473    0.757260920854798    0.841816445655084  0.0000
  O2     O2        0.247986548833934    0.851909680360869    0.221846298560041  0.0000
  O2     O2        0.336585411378482    0.460275364078848    0.661014010223059  0.0000
  O3     O3        0.721526294156386    0.498823769397545    0.350877258997038  0.0000
  O3     O3        0.274785372890042    0.135695239513911    0.699918203071116  0.0000
  O3     O3        0.801419063367940    0.159104996842383    0.322470942939257  0.0000
  O2     O2        0.788385428016097    0.824301873715087    0.345518901465288  0.0000
  O3     O3        0.253241080933906    0.772307415248898    0.696532138917910  0.0000
  O3     O3        0.996807676762648    0.987633914016905    0.531527514695766  0.0000
  O2     O2        0.016835774440684    0.966884356808630    0.284532440850610  0.0000
  O3     O3        0.081498651270589    0.964380369218948    0.815511706248475  0.0000
  O2     O2        0.992649042452967    0.968067630315800    0.028795311842890  0.0000
