data_c00066.vasp
_audit_creation_method             Generated by GULP
_audit_author_name                 Salvador R. G. Balestra
_symmetry_space_group_name_H-M     'P 1             '
_symmetry_Int_Tables_number        1

loop_
_symmetry_equiv_pos_site_id
_symmetry_equiv_pos_as_xyz
_cell_length_a                        9.0853
_cell_length_b                        7.6603
_cell_length_c                       10.1239
_cell_angle_alpha                   88.7849
_cell_angle_beta                   109.8730
_cell_angle_gamma                   87.0307

loop_
_atom_site_label
_atom_site_type_symbol
_atom_site_fract_x
_atom_site_fract_y
_atom_site_fract_z
_atom_site_charge
  Ge     Ge        0.313819999999964    0.296860000000038    0.309830000000034  0.0000
  Ge     Ge        0.333445355468633    0.296409918346570    0.631247762857244  0.0000
  Ge     Ge        0.708631598284607    0.653694421337972    0.397613005056005  0.0000
  Ge     Ge        0.380571100950146    0.706326826489751    0.640499142646915  0.0000
  Si     Si        0.689518312856284    0.258852891314128    0.706529463575551  0.0000
  Si     Si        0.745945242333879    0.636963453643281    0.726127781972343  0.0000
  Si     Si        0.344366003732550    0.711241060894531    0.319556936157360  0.0000
  Si     Si        0.666020342813685    0.263103566546358    0.388640240707816  0.0000
  Si     Si        0.914664407915033    0.955470503089292    0.388468136738686  0.0000
  Si     Si        0.159252881696650    0.991561051104422    0.693906084931102  0.0000
  Si     Si        0.092482405046985    0.011358764889555    0.173184164547866  0.0000
  Si     Si        0.931309748724606    0.946061610896660    0.857289176267020  0.0000
  O1     O1        0.302724783095781    0.222363503985978    0.466323437729114  0.0000
  O2     O2        0.630690593712756    0.285987173877702    0.535949181083830  0.0000
  O3     O3        0.746607274036041    0.690662712424447    0.572663122626608  0.0000
  O3     O3        0.365121183203409    0.777987438337794    0.473614527353830  0.0000
  O3     O3        0.276455085953132    0.520944730135179    0.300024959471300  0.0000
  O2     O2        0.789955997231053    0.427926904151154    0.765657222482349  0.0000
  O3     O3        0.491286241438877    0.249977642653531    0.282392987274034  0.0000
  O3     O3        0.529680643567745    0.254427828544270    0.738316677052568  0.0000
  O3     O3        0.576535007168244    0.670212336736008    0.737864131701087  0.0000
  O3     O3        0.513210852943257    0.704204942909107    0.301095844600640  0.0000
  O3     O3        0.174382889863983    0.191411743159307    0.180770435531193  0.0000
  O2     O2        0.794547313225359    0.080936588193046    0.759013409617295  0.0000
  O2     O2        0.873143835913110    0.750037921587442    0.836854108939249  0.0000
  O2     O2        0.223181319711260    0.850188351970177    0.209162666818048  0.0000
  O1     O1        0.288501892432186    0.515594265103132    0.632564253714527  0.0000
  O3     O3        0.746004308484473    0.436874796820472    0.365533676946774  0.0000
  O3     O3        0.205102667205253    0.189412506384390    0.693674805593137  0.0000
  O2     O2        0.776413675089187    0.094224366400424    0.390976797872562  0.0000
  O3     O3        0.835326584369185    0.774367150555701    0.345221298935442  0.0000
  O3     O3        0.315000946536553    0.866698846974794    0.726358286221330  0.0000
  O2     O2        0.044345093520431    0.933242697169122    0.542550671906364  0.0000
  O2     O2        0.992057247614600    0.015636885555135    0.276944370756525  0.0000
  O2     O2        0.084396244775211    0.960028545312594    0.813937604472480  0.0000
  O2     O2        0.969819469170815    0.991841210029917    0.017939796025516  0.0000
