data_c00062.vasp
_audit_creation_method             Generated by GULP
_audit_author_name                 Salvador R. G. Balestra
_symmetry_space_group_name_H-M     'P 1             '
_symmetry_Int_Tables_number        1

loop_
_symmetry_equiv_pos_site_id
_symmetry_equiv_pos_as_xyz
_cell_length_a                        9.1455
_cell_length_b                        7.6648
_cell_length_c                       10.2428
_cell_angle_alpha                   85.5231
_cell_angle_beta                   109.5591
_cell_angle_gamma                   91.5638

loop_
_atom_site_label
_atom_site_type_symbol
_atom_site_fract_x
_atom_site_fract_y
_atom_site_fract_z
_atom_site_charge
  Ge     Ge        0.313819999999964    0.296860000000038    0.309830000000034  0.0000
  Ge     Ge        0.347802294983192    0.250122078728485    0.634151858004802  0.0000
  Ge     Ge        0.691126719297928    0.352259851294136    0.397433344730613  0.0000
  Ge     Ge        0.884604878099426    0.045670622569131    0.353085704467710  0.0000
  Si     Si        0.717373579136713    0.290424036540895    0.711320024958551  0.0000
  Si     Si        0.682744546177662    0.687805257987174    0.723656499952967  0.0000
  Si     Si        0.298150456214154    0.690470716447946    0.331313472016477  0.0000
  Si     Si        0.647876786554623    0.754176772884832    0.405789192466941  0.0000
  Si     Si        0.333603475941140    0.640531197914109    0.650778412342355  0.0000
  Si     Si        0.128640521830279    0.950049903994860    0.661051142615667  0.0000
  Si     Si        0.085345326332088    0.002458918287714    0.166206057622714  0.0000
  Si     Si        0.919815143351567    0.968592304208462    0.852468184078485  0.0000
  O1     O1        0.269492886845131    0.239775748553380    0.457727349441141  0.0000
  O3     O3        0.764925678730480    0.301771573638441    0.575374911448410  0.0000
  O2     O2        0.697708749867347    0.740913484462325    0.573470900981872  0.0000
  O2     O2        0.305888527696972    0.623872520839327    0.487353801685997  0.0000
  O3     O3        0.269486445299524    0.515843506622329    0.252204041790081  0.0000
  O2     O2        0.727760704729537    0.484054126591457    0.768681994510767  0.0000
  O1     O1        0.506192239661087    0.272293053919103    0.334087553147774  0.0000
  O3     O3        0.544116628045411    0.217306626458973    0.675515822154822  0.0000
  O2     O2        0.507087548824952    0.717790222907504    0.720621891785192  0.0000
  O2     O2        0.462282656046873    0.779831775529078    0.338031602098047  0.0000
  O3     O3        0.198696964826606    0.167287264243147    0.184685252365617  0.0000
  O2     O2        0.835850784977353    0.156880093376234    0.825082214828587  0.0000
  O2     O2        0.794202165249556    0.811969749468169    0.834311493275080  0.0000
  O2     O2        0.167371871412519    0.834739101441194    0.266792610987569  0.0000
  O3     O3        0.319583061225375    0.441997070505430    0.702875685019017  0.0000
  O3     O3        0.695366245817770    0.575304125586795    0.359956500847684  0.0000
  O3     O3        0.262098442437271    0.092039671217945    0.713642406475941  0.0000
  O1     O1        0.819285741290020    0.255803275876767    0.338287122352484  0.0000
  O3     O3        0.725975717408524    0.917090373191822    0.351643500851420  0.0000
  O2     O2        0.208878329028196    0.759721605256650    0.679611595131317  0.0000
  O3     O3        0.039158964922708    0.993105790133741    0.499233299604507  0.0000
  O3     O3        0.934799543072462    0.035411080930300    0.206476933088620  0.0000
  O2     O2        0.012749082721376    0.944282177048804    0.747734367698900  0.0000
  O2     O2        0.037659955621084    0.951861334790340    0.008047472167148  0.0000
