data_c00003.vasp
_audit_creation_method             Generated by GULP
_audit_author_name                 Salvador R. G. Balestra
_symmetry_space_group_name_H-M     'P 1             '
_symmetry_Int_Tables_number        1

loop_
_symmetry_equiv_pos_site_id
_symmetry_equiv_pos_as_xyz
_cell_length_a                        9.0149
_cell_length_b                        7.6872
_cell_length_c                       10.2125
_cell_angle_alpha                   89.2409
_cell_angle_beta                   107.7902
_cell_angle_gamma                   88.6368

loop_
_atom_site_label
_atom_site_type_symbol
_atom_site_fract_x
_atom_site_fract_y
_atom_site_fract_z
_atom_site_charge
  Ge     Ge        0.313819999999964    0.296860000000038    0.309830000000034  0.0000
  Ge     Ge        0.698298660945265    0.218996005462722    0.715360101711141  0.0000
  Ge     Ge        0.730208430172899    0.635508360371742    0.728947306320467  0.0000
  Ge     Ge        0.679664716699682    0.240590467351232    0.394249153922681  0.0000
  Si     Si        0.350563479150406    0.690617718980381    0.334738867497039  0.0000
  Si     Si        0.340792053756792    0.279849386209195    0.634695071467072  0.0000
  Si     Si        0.709839254133438    0.645403544538295    0.417415170904994  0.0000
  Si     Si        0.365246356210905    0.675119090875343    0.647078042043942  0.0000
  Si     Si        0.900674263163630    0.942545388510195    0.350587493117935  0.0000
  Si     Si        0.133724123646614    0.973739605466075    0.653301984077494  0.0000
  Si     Si        0.121494268024150    0.980677949658196    0.173281288119903  0.0000
  Si     Si        0.941516666907862    0.932310601969573    0.864422777418928  0.0000
  O3     O3        0.342094994211227    0.246706025351192    0.480668261239028  0.0000
  O1     O1        0.691579399153936    0.156149031549243    0.553536405738034  0.0000
  O3     O3        0.734019575587602    0.712231476522259    0.569920980438043  0.0000
  O2     O2        0.356342735507428    0.725277328403505    0.491203430196989  0.0000
  O3     O3        0.260821261341872    0.516364679616160    0.280200762012820  0.0000
  O1     O1        0.777383247936432    0.420241588732695    0.748269254160901  0.0000
  O1     O1        0.491790271566602    0.253954196083498    0.287900703489418  0.0000
  O3     O3        0.512725695396423    0.235513209369821    0.732349001732332  0.0000
  O3     O3        0.543406090856168    0.676570733004836    0.739762517638107  0.0000
  O2     O2        0.526462454179466    0.661218128076057    0.330066444503683  0.0000
  O3     O3        0.166534973040998    0.179051109051723    0.204016961667756  0.0000
  O3     O3        0.799527868593496    0.070363668206680    0.839383108448312  0.0000
  O3     O3        0.870884767354330    0.742769423741666    0.851706273818633  0.0000
  O2     O2        0.275618352520109    0.860563057046604    0.243605104744335  0.0000
  O2     O2        0.296564727837654    0.482781033649633    0.651795987804175  0.0000
  O3     O3        0.761022313784220    0.445327684104595    0.419245011728246  0.0000
  O2     O2        0.215930869597422    0.159549770581447    0.673203294448247  0.0000
  O3     O3        0.787792428424748    0.110134818617411    0.319497981786151  0.0000
  O2     O2        0.806215202447368    0.766477022226492    0.345108816250894  0.0000
  O2     O2        0.260499733589272    0.814639794587706    0.698624147121139  0.0000
  O2     O2        0.033938614052599    0.958065941254201    0.495486246218877  0.0000
  O2     O2        0.981926317763947    0.927059823597496    0.231384938380935  0.0000
  O2     O2        0.022288448250670    0.972972600588077    0.747287512746693  0.0000
  O2     O2        0.069649226306536    0.951899829111123    0.011124443784748  0.0000
