data_c00091.vasp
_audit_creation_method             Generated by GULP
_audit_author_name                 Salvador R. G. Balestra
_symmetry_space_group_name_H-M     'P 1             '
_symmetry_Int_Tables_number        1

loop_
_symmetry_equiv_pos_site_id
_symmetry_equiv_pos_as_xyz
_cell_length_a                        9.0703
_cell_length_b                        7.6716
_cell_length_c                       10.3727
_cell_angle_alpha                   89.8236
_cell_angle_beta                   109.7134
_cell_angle_gamma                   88.1573

loop_
_atom_site_label
_atom_site_type_symbol
_atom_site_fract_x
_atom_site_fract_y
_atom_site_fract_z
_atom_site_charge
  Ge     Ge        0.313819999999964    0.296860000000038    0.309830000000034  0.0000
  Ge     Ge        0.682893564267030    0.218722746106536    0.397011754737952  0.0000
  Ge     Ge        0.919120057505281    0.919874185759371    0.349449873254345  0.0000
  Ge     Ge        0.128039225998645    0.972622671478465    0.159671012491629  0.0000
  Si     Si        0.722579701113458    0.225875156634547    0.713879526289807  0.0000
  Si     Si        0.752828718845712    0.627681874096966    0.720833886712967  0.0000
  Si     Si        0.373981171771396    0.688451634479448    0.332444369430792  0.0000
  Si     Si        0.366512619368645    0.277449917953706    0.635682620990917  0.0000
  Si     Si        0.733973727953572    0.615916259547550    0.417629293539131  0.0000
  Si     Si        0.396436082276498    0.671783219422816    0.643454612782796  0.0000
  Si     Si        0.168555983757100    0.971997905892398    0.649807065164000  0.0000
  Si     Si        0.963549295306116    0.931136303605877    0.841453399420237  0.0000
  O3     O3        0.334912341171780    0.245072617162880    0.477538081533536  0.0000
  O3     O3        0.712057402212620    0.159567767031698    0.565451113150756  0.0000
  O2     O2        0.758109809424941    0.678298595210232    0.572124499444143  0.0000
  O2     O2        0.372465637933095    0.714724030634815    0.486379753209148  0.0000
  O3     O3        0.276003333244714    0.518257684971453    0.275127373590894  0.0000
  O2     O2        0.790639707408809    0.420448370608262    0.747567276554739  0.0000
  O1     O1        0.491546543614933    0.236430434550445    0.296344685542604  0.0000
  O2     O2        0.547967686617322    0.228327912391504    0.722627185273069  0.0000
  O2     O2        0.581452564225351    0.675255157617839    0.730240068508015  0.0000
  O2     O2        0.549910102107639    0.651982071930886    0.331480218178648  0.0000
  O1     O1        0.163914407265309    0.187637072648845    0.199884893360118  0.0000
  O2     O2        0.835292880509804    0.089647619485560    0.825504560395184  0.0000
  O2     O2        0.880227429122484    0.744476947426058    0.828502118585044  0.0000
  O3     O3        0.303210372179129    0.859719698555050    0.246291805548134  0.0000
  O2     O2        0.331209716211590    0.481444803182998    0.658420053360898  0.0000
  O3     O3        0.775016950683556    0.414970236556020    0.409775832715047  0.0000
  O2     O2        0.254734572489607    0.156436129711922    0.687891636147716  0.0000
  O1     O1        0.771421377177177    0.071982684898731    0.322613060256616  0.0000
  O3     O3        0.849248599102962    0.717255827011744    0.362107257970671  0.0000
  O2     O2        0.299216700264944    0.814033704031812    0.698362162021811  0.0000
  O3     O3        0.080158913469902    0.969293282895495    0.488427770824477  0.0000
  O1     O1        0.978261167830188    0.907574174112394    0.209448428077203  0.0000
  O2     O2        0.043828080223222    0.954310911630969    0.726362563109165  0.0000
  O3     O3        0.092627582644249    0.938156961706345    0.988173290302961  0.0000
