data_c00020.vasp
_audit_creation_method             Generated by GULP
_audit_author_name                 Salvador R. G. Balestra
_symmetry_space_group_name_H-M     'P 1             '
_symmetry_Int_Tables_number        1

loop_
_symmetry_equiv_pos_site_id
_symmetry_equiv_pos_as_xyz
_cell_length_a                        9.0448
_cell_length_b                        7.6617
_cell_length_c                       10.3375
_cell_angle_alpha                   89.3943
_cell_angle_beta                   107.0579
_cell_angle_gamma                   91.0195

loop_
_atom_site_label
_atom_site_type_symbol
_atom_site_fract_x
_atom_site_fract_y
_atom_site_fract_z
_atom_site_charge
  Ge     Ge        0.313819999999964    0.296860000000038    0.309830000000034  0.0000
  Ge     Ge        0.678985003933047    0.347346467847246    0.709424897460277  0.0000
  Ge     Ge        0.629174673815821    0.759656925463312    0.383656107097182  0.0000
  Ge     Ge        0.069254859604713    0.006758592023333    0.144172865732145  0.0000
  Si     Si        0.644625379778920    0.747810244776265    0.697896471024904  0.0000
  Si     Si        0.273197448772213    0.702270096313601    0.301604614231261  0.0000
  Si     Si        0.311753457458350    0.295566385827331    0.615428425353258  0.0000
  Si     Si        0.673512697917505    0.354330587102214    0.400616156543099  0.0000
  Si     Si        0.288050433785334    0.693240216198795    0.610098241356670  0.0000
  Si     Si        0.860846568571153    0.052904881483205    0.337165004524372  0.0000
  Si     Si        0.085799216616907    0.999954625673572    0.629844955334596  0.0000
  Si     Si        0.881764723138266    0.031638242408550    0.830272239215971  0.0000
  O3     O3        0.257362354864194    0.269241306926169    0.454559405468825  0.0000
  O3     O3        0.730640644047909    0.357033729893232    0.562410877385933  0.0000
  O3     O3        0.684683865274209    0.771578328743350    0.557508439995806  0.0000
  O2     O2        0.243998487781409    0.693881859283602    0.448391055011522  0.0000
  O3     O3        0.282308413845542    0.508479472774744    0.250345455498194  0.0000
  O3     O3        0.689033427471983    0.559671413487577    0.765335859077715  0.0000
  O3     O3        0.508525773068727    0.255794384104576    0.352426487178557  0.0000
  O3     O3        0.492983548062002    0.263185024710525    0.676797730238837  0.0000
  O2     O2        0.460717903453594    0.770888451002930    0.670798834604122  0.0000
  O3     O3        0.434855716692964    0.803980161998906    0.317943589263207  0.0000
  O1     O1        0.215074031475511    0.158781584646266    0.186523980444423  0.0000
  O3     O3        0.809809652127124    0.222316071185886    0.826109627750430  0.0000
  O2     O2        0.736360519754753    0.896212243743961    0.800444589993454  0.0000
  O3     O3        0.133990985724808    0.801511665606711    0.199687163538663  0.0000
  O2     O2        0.277757440887270    0.492505878565904    0.656900234710479  0.0000
  O3     O3        0.661311998098733    0.548449837018582    0.340788316046597  0.0000
  O2     O2        0.210677266636839    0.157980156006022    0.674903355542061  0.0000
  O2     O2        0.795632040431927    0.243616398334990    0.350804790810875  0.0000
  O3     O3        0.728713553720749    0.904720505656704    0.313303918913572  0.0000
  O2     O2        0.172430951120217    0.813751866355862    0.661012051460117  0.0000
  O2     O2        0.999447438008089    0.004993425047702    0.470293216723358  0.0000
  O3     O3        0.921547175972180    0.064122662529817    0.207800882187215  0.0000
  O2     O2        0.963541694311160    0.012124310094779    0.712470193854025  0.0000
  O3     O3        0.004301647225139    0.993937513926973    0.970912346319380  0.0000
