data_c00052.vasp
_audit_creation_method             Generated by GULP
_audit_author_name                 Salvador R. G. Balestra
_symmetry_space_group_name_H-M     'P 1             '
_symmetry_Int_Tables_number        1

loop_
_symmetry_equiv_pos_site_id
_symmetry_equiv_pos_as_xyz
_cell_length_a                        9.0406
_cell_length_b                        7.6516
_cell_length_c                       10.1279
_cell_angle_alpha                   92.9583
_cell_angle_beta                   106.9892
_cell_angle_gamma                   88.3318

loop_
_atom_site_label
_atom_site_type_symbol
_atom_site_fract_x
_atom_site_fract_y
_atom_site_fract_z
_atom_site_charge
  Ge     Ge        0.313819999999964    0.296860000000038    0.309830000000034  0.0000
  Ge     Ge        0.366438823914823    0.717645348769000    0.319601355352511  0.0000
  Ge     Ge        0.688597182079937    0.241406087419583    0.392085179276889  0.0000
  Ge     Ge        0.105779918971737    0.981205764927565    0.167086608382123  0.0000
  Si     Si        0.703883856014166    0.273563858170246    0.712597959264049  0.0000
  Si     Si        0.712049445077207    0.659676158803925    0.708084190844757  0.0000
  Si     Si        0.342275327924103    0.314485341379674    0.627408680872922  0.0000
  Si     Si        0.712363835573603    0.637780868730775    0.397213908579024  0.0000
  Si     Si        0.369805010806782    0.721757298445322    0.635685468663337  0.0000
  Si     Si        0.926855947031395    0.943598947214471    0.391406745131669  0.0000
  Si     Si        0.153604509275541    0.023159840804776    0.687612822126727  0.0000
  Si     Si        0.919786688197078    0.975910448784224    0.851487151703637  0.0000
  O3     O3        0.293432509785019    0.249159266987364    0.469510872950937  0.0000
  O3     O3        0.732152268393156    0.216286554667518    0.568260181463363  0.0000
  O2     O2        0.673755827399708    0.619471530328190    0.543792086321274  0.0000
  O3     O3        0.353564923922363    0.781802409870200    0.483220966998090  0.0000
  O1     O1        0.293351687231973    0.512265216008248    0.278203547274771  0.0000
  O2     O2        0.763696361210358    0.469512482906106    0.772111686178027  0.0000
  O1     O1        0.495548622898344    0.220170181377953    0.312169016603220  0.0000
  O2     O2        0.522187187798452    0.270275226205372    0.697981298516702  0.0000
  O2     O2        0.549697930178644    0.729797624667864    0.730494238330368  0.0000
  O3     O3        0.553799466500838    0.717919877654360    0.304745674527093  0.0000
  O1     O1        0.163776193661445    0.193037407162859    0.190758702270158  0.0000
  O2     O2        0.796886618138753    0.136135167336021    0.823115515434929  0.0000
  O2     O2        0.845513619694379    0.798779570529720    0.768012108333241  0.0000
  O1     O1        0.272911718195776    0.858778704128297    0.197825253694746  0.0000
  O2     O2        0.309430886719548    0.523845412565692    0.635285299431738  0.0000
  O3     O3        0.745812164652434    0.441878337699023    0.351356901552100  0.0000
  O2     O2        0.244258031076733    0.206676190910599    0.705993037012329  0.0000
  O3     O3        0.792374720490792    0.083097134308329    0.328512387730707  0.0000
  O2     O2        0.857346573941332    0.757920985092272    0.410876868754476  0.0000
  O2     O2        0.269913590236529    0.856382888301185    0.703674706283745  0.0000
  O2     O2        0.023003718394795    0.019550089959109    0.541847853277872  0.0000
  O3     O3        0.030546046753392    0.905614459215961    0.292203879726451  0.0000
  O2     O2        0.073809607660320    0.021165760321736    0.810347470460629  0.0000
  O3     O3        0.968822081919295    0.941285606163407    0.011420938966098  0.0000
