data_c00014.vasp
_audit_creation_method             Generated by GULP
_audit_author_name                 Salvador R. G. Balestra
_symmetry_space_group_name_H-M     'P 1             '
_symmetry_Int_Tables_number        1

loop_
_symmetry_equiv_pos_site_id
_symmetry_equiv_pos_as_xyz
_cell_length_a                        9.0663
_cell_length_b                        7.7616
_cell_length_c                       10.1641
_cell_angle_alpha                   87.7378
_cell_angle_beta                   111.6216
_cell_angle_gamma                   87.7182

loop_
_atom_site_label
_atom_site_type_symbol
_atom_site_fract_x
_atom_site_fract_y
_atom_site_fract_z
_atom_site_charge
  Ge     Ge        0.313819999999964    0.296860000000038    0.309830000000034  0.0000
  Ge     Ge        0.713735193430881    0.258435516279835    0.706728869265340  0.0000
  Ge     Ge        0.352196615217337    0.272812672607002    0.640383259918203  0.0000
  Ge     Ge        0.167064303321384    0.957430993958360    0.696347417654523  0.0000
  Si     Si        0.749821220899281    0.633827666294272    0.719444273508917  0.0000
  Si     Si        0.323745722344799    0.705786988946290    0.325716005002313  0.0000
  Si     Si        0.663315272753936    0.298771588209934    0.380238807907885  0.0000
  Si     Si        0.689677408918963    0.680670833468864    0.397348099745903  0.0000
  Si     Si        0.378769348510883    0.669510588700524    0.642051591499296  0.0000
  Si     Si        0.894118330609034    0.977724481156364    0.383061530783534  0.0000
  Si     Si        0.080562306806463    0.013430400619208    0.174469769469886  0.0000
  Si     Si        0.943653281723303    0.935998605513230    0.858599688872756  0.0000
  O1     O1        0.313429173027346    0.216614395789712    0.468904517424644  0.0000
  O3     O3        0.628102039117578    0.310998836805759    0.524856131992906  0.0000
  O2     O2        0.756244555077856    0.694902333869200    0.567651402713371  0.0000
  O2     O2        0.324471966259574    0.747836952802861    0.479989291705095  0.0000
  O3     O3        0.265443725327985    0.517250388517964    0.286586222012086  0.0000
  O3     O3        0.818514696285006    0.440265914974905    0.771424131307033  0.0000
  O3     O3        0.487851338683556    0.265191289814338    0.273740332817146  0.0000
  O1     O1        0.549533979611994    0.222017358624349    0.745116540539896  0.0000
  O2     O2        0.567735904469292    0.625372681118091    0.707412098205134  0.0000
  O2     O2        0.500960554233274    0.724347146787717    0.326967069158529  0.0000
  O3     O3        0.167781836850211    0.188752864154998    0.185167770592223  0.0000
  O3     O3        0.845660473570851    0.084995746046691    0.740205425362026  0.0000
  O2     O2        0.843499595701110    0.765241108632758    0.834510596651586  0.0000
  O2     O2        0.208501239373005    0.850695598503461    0.215067065019703  0.0000
  O3     O3        0.300362841074533    0.489109475978087    0.644096793655468  0.0000
  O2     O2        0.725883849520008    0.487728812051571    0.355370211595664  0.0000
  O1     O1        0.231352101505413    0.160257670024575    0.704226570600476  0.0000
  O2     O2        0.798079813239028    0.155295567103322    0.389114711206389  0.0000
  O2     O2        0.775255118907142    0.821717271110850    0.334439446278987  0.0000
  O3     O3        0.328071127573357    0.811552647293728    0.726677904944389  0.0000
  O3     O3        0.023023679062729    0.922752835256942    0.534453975132396  0.0000
  O2     O2        0.970635196767846    0.011940603283171    0.266812254972385  0.0000
  O3     O3        0.105998896470732    0.904496303981070    0.834541186414673  0.0000
  O2     O2        0.963377795962783    0.001110051614921    0.011616716793398  0.0000
