data_c00023.vasp
_audit_creation_method             Generated by GULP
_audit_author_name                 Salvador R. G. Balestra
_symmetry_space_group_name_H-M     'P 1             '
_symmetry_Int_Tables_number        1

loop_
_symmetry_equiv_pos_site_id
_symmetry_equiv_pos_as_xyz
_cell_length_a                        9.1060
_cell_length_b                        7.6865
_cell_length_c                       10.3883
_cell_angle_alpha                   89.0845
_cell_angle_beta                   107.7923
_cell_angle_gamma                   91.1889

loop_
_atom_site_label
_atom_site_type_symbol
_atom_site_fract_x
_atom_site_fract_y
_atom_site_fract_z
_atom_site_charge
  Ge     Ge        0.313819999999964    0.296860000000038    0.309830000000034  0.0000
  Ge     Ge        0.689441222505354    0.339936285462383    0.707668709267502  0.0000
  Ge     Ge        0.858927673639063    0.044606926192318    0.336277961252974  0.0000
  Ge     Ge        0.068851880162471    0.003785349266610    0.140988621018521  0.0000
  Si     Si        0.652898153434680    0.742900123640599    0.695407299424458  0.0000
  Si     Si        0.276966581276472    0.700544893229008    0.306332001556051  0.0000
  Si     Si        0.321409845533771    0.293945004395532    0.619650916527324  0.0000
  Si     Si        0.673513190260329    0.349397507926675    0.397640291323417  0.0000
  Si     Si        0.627703214576610    0.751514694745351    0.387057103814059  0.0000
  Si     Si        0.297314752680867    0.690571119429149    0.614966571943972  0.0000
  Si     Si        0.098231345610711    0.997152975006802    0.631610305683966  0.0000
  Si     Si        0.892911739988839    0.026151628250919    0.826697286344379  0.0000
  O3     O3        0.271759811699898    0.263828731884642    0.459555673009514  0.0000
  O3     O3        0.730939701243253    0.321341181982591    0.558216666732954  0.0000
  O2     O2        0.676324292763437    0.774304798862394    0.548835332066355  0.0000
  O2     O2        0.252537582431286    0.702555387829984    0.453544357319786  0.0000
  O3     O3        0.269791932174461    0.506907532600140    0.253644102600424  0.0000
  O3     O3        0.710660554357436    0.555038563585987    0.755324924122702  0.0000
  O3     O3        0.506372821413059    0.260203443349064    0.337865873046763  0.0000
  O3     O3        0.502394333347297    0.268480158561788    0.686236728582706  0.0000
  O2     O2        0.472599621067830    0.756916233536310    0.682614435881261  0.0000
  O2     O2        0.445672237858892    0.786453792332604    0.320928050714248  0.0000
  O1     O1        0.207589975996134    0.162668586972247    0.187853755126022  0.0000
  O3     O3        0.821076864977454    0.215640019772390    0.825358194501139  0.0000
  O2     O2        0.747383953440600    0.891033916715954    0.795040589381697  0.0000
  O3     O3        0.142989319396818    0.804888109847396    0.204126724943844  0.0000
  O2     O2        0.279581319792290    0.489099372033023    0.654866867871443  0.0000
  O2     O2        0.663692367128958    0.553719216744859    0.357775437014705  0.0000
  O2     O2        0.222293650045864    0.155696894291564    0.679041015993003  0.0000
  O3     O3        0.791714380551205    0.252514355520939    0.339423421866747  0.0000
  O3     O3        0.718497012219529    0.885531663043196    0.322132475917471  0.0000
  O2     O2        0.185781963052484    0.811998014606955    0.667159899352469  0.0000
  O3     O3        0.018151066861367    0.004470623491998    0.472013661933789  0.0000
  O1     O1        0.912751467406970    0.044213268587423    0.192863834753063  0.0000
  O2     O2        0.972190729918820    0.009146826902778    0.708651854423582  0.0000
  O3     O3        0.015578993054748    0.986406128873672    0.967423408680172  0.0000
