data_c00027.vasp
_audit_creation_method             Generated by GULP
_audit_author_name                 Salvador R. G. Balestra
_symmetry_space_group_name_H-M     'P 1             '
_symmetry_Int_Tables_number        1

loop_
_symmetry_equiv_pos_site_id
_symmetry_equiv_pos_as_xyz
_cell_length_a                        9.2204
_cell_length_b                        7.5752
_cell_length_c                        9.9531
_cell_angle_alpha                   86.1334
_cell_angle_beta                   111.1657
_cell_angle_gamma                   86.0863

loop_
_atom_site_label
_atom_site_type_symbol
_atom_site_fract_x
_atom_site_fract_y
_atom_site_fract_z
_atom_site_charge
  Ge     Ge        0.313819999999964    0.296860000000038    0.309830000000034  0.0000
  Ge     Ge        0.779608337890755    0.577540913976990    0.754917376510931  0.0000
  Ge     Ge        0.368685548019752    0.244989236551115    0.655528129306692  0.0000
  Ge     Ge        0.724746713164326    0.629408211593699    0.409220551455349  0.0000
  Si     Si        0.722038596513462    0.186591087241916    0.722762681265166  0.0000
  Si     Si        0.371395301777980    0.687804138509760    0.341983570730170  0.0000
  Si     Si        0.668000579188904    0.238012500808849    0.388994620368147  0.0000
  Si     Si        0.425429465439044    0.636383200847698    0.675746891642472  0.0000
  Si     Si        0.912204948396405    0.935388144496069    0.377264600675388  0.0000
  Si     Si        0.181219553361071    0.939013403585706    0.687465168687853  0.0000
  Si     Si        0.110842430972818    0.001935879005049    0.189890326327165  0.0000
  Si     Si        0.982596473031157    0.872455529870902    0.874854590737351  0.0000
  O1     O1        0.307199304432176    0.226043034987939    0.473909929876418  0.0000
  O2     O2        0.659364006321966    0.243143641527195    0.549361826100464  0.0000
  O1     O1        0.786229834092793    0.648359717490144    0.590837813311627  0.0000
  O2     O2        0.434077410334099    0.631232373808886    0.515383876751032  0.0000
  O3     O3        0.278571547112085    0.526335049966837    0.269421039808821  0.0000
  O3     O3        0.814855957450669    0.348065919007523    0.795321276231436  0.0000
  O3     O3        0.488955949148455    0.242250899073366    0.286862434319113  0.0000
  O3     O3        0.563765905817273    0.167705605563248    0.751324533290382  0.0000
  O3     O3        0.604471777226851    0.632154792392283    0.777883516811329  0.0000
  O3     O3        0.529666841637663    0.706693097084252    0.313420234915801  0.0000
  O3     O3        0.167486153297481    0.194775689086497    0.185171156814972  0.0000
  O2     O2        0.832331629281163    0.002936145356554    0.768216393030137  0.0000
  O3     O3        0.925942932068948    0.679621271077335    0.879578861020742  0.0000
  O2     O2        0.261105425345885    0.871462538789699    0.296544140709761  0.0000
  O3     O3        0.346582875712926    0.461049670168808    0.698738479572581  0.0000
  O3     O3        0.746849800767555    0.413347634125706    0.366011713869461  0.0000
  O3     O3        0.242077555151646    0.129976823111420    0.713321011967013  0.0000
  O2     O2        0.762503659190120    0.063244571802489    0.370643529873359  0.0000
  O3     O3        0.851359930209068    0.744416073653440    0.351431585951935  0.0000
  O2     O2        0.330914072594564    0.811155899345896    0.694072121320322  0.0000
  O2     O2        0.046711796479433    0.937221599166194    0.532362229926800  0.0000
  O2     O2        0.971690348775982    0.001467538895820    0.251528238896790  0.0000
  O2     O2        0.121729117460110    0.872910648274985    0.813191328035832  0.0000
  O2     O2        0.046739471217402    0.937191707320692    0.032372940858802  0.0000
