data_c00028.vasp
_audit_creation_method             Generated by GULP
_audit_author_name                 Salvador R. G. Balestra
_symmetry_space_group_name_H-M     'P 1             '
_symmetry_Int_Tables_number        1

loop_
_symmetry_equiv_pos_site_id
_symmetry_equiv_pos_as_xyz
_cell_length_a                        9.0943
_cell_length_b                        7.6639
_cell_length_c                       10.1707
_cell_angle_alpha                   87.7279
_cell_angle_beta                   110.4615
_cell_angle_gamma                   87.4234

loop_
_atom_site_label
_atom_site_type_symbol
_atom_site_fract_x
_atom_site_fract_y
_atom_site_fract_z
_atom_site_charge
  Ge     Ge        0.313819999999964    0.296860000000038    0.309830000000034  0.0000
  Ge     Ge        0.751239617137039    0.614234424932148    0.733779636192984  0.0000
  Ge     Ge        0.330811711782482    0.282248022923477    0.630055806237321  0.0000
  Ge     Ge        0.375797235959712    0.690570231132032    0.647000982977502  0.0000
  Si     Si        0.689353424097882    0.231185310704316    0.708688529880026  0.0000
  Si     Si        0.343276970182876    0.711164936952144    0.328374633643089  0.0000
  Si     Si        0.667026292606527    0.272034065794001    0.390607611712683  0.0000
  Si     Si        0.703470802880724    0.659500560867176    0.404993584395624  0.0000
  Si     Si        0.907024084647293    0.957957950598153    0.388123062440743  0.0000
  Si     Si        0.153935322672249    0.977752825800201    0.694462221141997  0.0000
  Si     Si        0.092831367966859    0.009091026813010    0.176681791371251  0.0000
  Si     Si        0.934002878544341    0.927710158997424    0.864393524706715  0.0000
  O1     O1        0.303191478112081    0.216179272252865    0.464885295041769  0.0000
  O2     O2        0.635636185332506    0.267846350411351    0.538614025160038  0.0000
  O3     O3        0.749938880203668    0.682246887782126    0.569545269963770  0.0000
  O3     O3        0.355501677822463    0.771068641980372    0.480195648786985  0.0000
  O3     O3        0.276450895283687    0.521488306677077    0.300317845063589  0.0000
  O3     O3        0.795482866052617    0.390273978651706    0.772826314773392  0.0000
  O3     O3        0.492016646470409    0.257272556051156    0.283237081621403  0.0000
  O3     O3        0.527231797273930    0.235483807582918    0.736542659717215  0.0000
  O1     O1        0.570048331272145    0.649722776856575    0.744743872174189  0.0000
  O2     O2        0.518773855415289    0.709234165693101    0.321757224137632  0.0000
  O3     O3        0.168652066719596    0.193633104552588    0.183999435592702  0.0000
  O2     O2        0.781674525308936    0.043277666877917    0.758843361189489  0.0000
  O3     O3        0.890736075710200    0.728340217399393    0.854712260249921  0.0000
  O2     O2        0.231597341134201    0.855673511384958    0.213910955429478  0.0000
  O1     O1        0.283103072659239    0.499133932185881    0.633690722444516  0.0000
  O2     O2        0.738468901373325    0.458619838417395    0.373602322704047  0.0000
  O3     O3        0.202647225024327    0.173975747544804    0.691013101420797  0.0000
  O2     O2        0.790623849933145    0.124281642961344    0.381783264222090  0.0000
  O2     O2        0.807612827306381    0.786164371370842    0.347469545886307  0.0000
  O3     O3        0.306179942490557    0.847016884556739    0.730319148121037  0.0000
  O2     O2        0.033531452848101    0.924701669970717    0.543783684780924  0.0000
  O2     O2        0.991998728750456    0.992300437478877    0.277886929927837  0.0000
  O2     O2        0.081511181461868    0.954093792605982    0.815856633679802  0.0000
  O2     O2        0.972339298160974    0.990429411603050    0.020102256530981  0.0000
