data_c00110.vasp
_audit_creation_method             Generated by GULP
_audit_author_name                 Salvador R. G. Balestra
_symmetry_space_group_name_H-M     'P 1             '
_symmetry_Int_Tables_number        1

loop_
_symmetry_equiv_pos_site_id
_symmetry_equiv_pos_as_xyz
_cell_length_a                        9.0991
_cell_length_b                        7.6895
_cell_length_c                       10.3423
_cell_angle_alpha                   87.4002
_cell_angle_beta                   108.0754
_cell_angle_gamma                   91.9297

loop_
_atom_site_label
_atom_site_type_symbol
_atom_site_fract_x
_atom_site_fract_y
_atom_site_fract_z
_atom_site_charge
  Ge     Ge        0.313819999999964    0.296860000000038    0.309830000000034  0.0000
  Ge     Ge        0.301403046969514    0.656718684693149    0.626373339774361  0.0000
  Ge     Ge        0.110969422870613    0.966865529674048    0.682779732257083  0.0000
  Ge     Ge        0.897505665683457    0.007505194822948    0.872778205716957  0.0000
  Si     Si        0.696712573381600    0.318017138243295    0.705032629311257  0.0000
  Si     Si        0.660711522322135    0.716543465776390    0.706910578909465  0.0000
  Si     Si        0.290753098017389    0.696644334571219    0.311478715057368  0.0000
  Si     Si        0.342070988708741    0.256164233965895    0.626722104718431  0.0000
  Si     Si        0.679068699647500    0.341309013320426    0.398981344165217  0.0000
  Si     Si        0.649833844506001    0.738971096681115    0.400903296288523  0.0000
  Si     Si        0.875488792444592    0.039057571249503    0.385542263323434  0.0000
  Si     Si        0.075496305617626    0.004551490175436    0.187395839444142  0.0000
  O3     O3        0.281322627674679    0.252798318441335    0.463388202604298  0.0000
  O2     O2        0.731602679303707    0.314443012736077    0.561969926640065  0.0000
  O2     O2        0.694388752500239    0.757288997497825    0.563345013164301  0.0000
  O3     O3        0.253243001496749    0.683045422255965    0.452208138558568  0.0000
  O3     O3        0.271242477850311    0.508380333124354    0.249602405361699  0.0000
  O2     O2        0.699930362656481    0.515134565351056    0.751574127730005  0.0000
  O3     O3        0.507257684437155    0.270049646021272    0.330190088266894  0.0000
  O2     O2        0.526797072517508    0.233739909991043    0.681390218085528  0.0000
  O3     O3        0.484407758646364    0.746754492869654    0.694013928007803  0.0000
  O2     O2        0.467102090778711    0.768185109012947    0.335352305513956  0.0000
  O3     O3        0.195046920357849    0.164081893195144    0.191120516996639  0.0000
  O3     O3        0.821504955397683    0.210079965181862    0.817425572628835  0.0000
  O3     O3        0.767803295376613    0.838937394833840    0.817720113258930  0.0000
  O2     O2        0.174169801038542    0.829275330547927    0.209156003573252  0.0000
  O3     O3        0.297357658221064    0.438875396288095    0.671930799062777  0.0000
  O2     O2        0.692551487789664    0.547894839733230    0.363827764446881  0.0000
  O3     O3        0.270680317367556    0.097954000761173    0.691832610394908  0.0000
  O2     O2        0.794660634379197    0.228089786161732    0.346070575904683  0.0000
  O2     O2        0.745530226549568    0.884048232275375    0.341820644791125  0.0000
  O1     O1        0.167156193200707    0.757532686841307    0.677349767368035  0.0000
  O3     O3        0.955046492439379    0.024802009091061    0.546049011214116  0.0000
  O2     O2        0.001979068933362    0.022358942472231    0.309400289672406  0.0000
  O1     O1        0.059389618467260    0.983627670824269    0.826754875899097  0.0000
  O3     O3        0.941389053568283    0.002061604071894    0.047350684521304  0.0000
