data_c00103.vasp
_audit_creation_method             Generated by GULP
_audit_author_name                 Salvador R. G. Balestra
_symmetry_space_group_name_H-M     'P 1             '
_symmetry_Int_Tables_number        1

loop_
_symmetry_equiv_pos_site_id
_symmetry_equiv_pos_as_xyz
_cell_length_a                        9.1443
_cell_length_b                        7.7296
_cell_length_c                       10.0834
_cell_angle_alpha                   88.3611
_cell_angle_beta                   107.1896
_cell_angle_gamma                   90.6292

loop_
_atom_site_label
_atom_site_type_symbol
_atom_site_fract_x
_atom_site_fract_y
_atom_site_fract_z
_atom_site_charge
  Ge     Ge        0.313819999999964    0.296860000000038    0.309830000000034  0.0000
  Ge     Ge        0.637383601032277    0.741246768138224    0.381852901303390  0.0000
  Ge     Ge        0.096952321269092    0.996532319988343    0.625945704683738  0.0000
  Ge     Ge        0.070186957155870    0.010832866785105    0.139188534858611  0.0000
  Si     Si        0.672896953916217    0.327242555086457    0.707167571565003  0.0000
  Si     Si        0.659005987695894    0.720259397185860    0.706706627993869  0.0000
  Si     Si        0.280526365151854    0.706279240424254    0.305493920043854  0.0000
  Si     Si        0.324252493664843    0.292592986509859    0.625521490767269  0.0000
  Si     Si        0.668267709970731    0.340106999008037    0.389927149129942  0.0000
  Si     Si        0.308372415436995    0.693157507923497    0.620558022976278  0.0000
  Si     Si        0.861077427697233    0.038948731581299    0.328316797812375  0.0000
  Si     Si        0.879978754331398    0.013730459537125    0.821105090721979  0.0000
  O3     O3        0.304347206419582    0.226033627379209    0.471273324494448  0.0000
  O2     O2        0.669280833777727    0.306323733957155    0.548833923612599  0.0000
  O3     O3        0.667523039101366    0.776794474200605    0.555316647717150  0.0000
  O2     O2        0.289534580991557    0.757643921824117    0.462626460575160  0.0000
  O3     O3        0.245725885091509    0.505308164449372    0.282373246989494  0.0000
  O2     O2        0.721403614071316    0.524608826182311    0.749995301233901  0.0000
  O3     O3        0.498752754922424    0.292138626695369    0.298175448406794  0.0000
  O2     O2        0.502567748857718    0.284962997640217    0.716219743356968  0.0000
  O2     O2        0.483977200837889    0.726382546222861    0.710520851128752  0.0000
  O3     O3        0.446627678420614    0.753690826004976    0.289247960875759  0.0000
  O1     O1        0.207128348817864    0.167317960301064    0.185182998960625  0.0000
  O2     O2        0.791118332291820    0.196791369754228    0.809755221938237  0.0000
  O2     O2        0.761254076698365    0.853941240553819    0.816023219674733  0.0000
  O3     O3        0.147103122861467    0.810604385207311    0.197847649165531  0.0000
  O2     O2        0.266751702102907    0.490097861584873    0.622089022368275  0.0000
  O3     O3        0.706401549109538    0.537935116743909    0.365273201594063  0.0000
  O3     O3        0.219776439974583    0.167922954308883    0.687528686276322  0.0000
  O2     O2        0.795760724934473    0.222349450097441    0.357802382552782  0.0000
  O3     O3        0.733956262065608    0.891628896713995    0.312843999804678  0.0000
  O3     O3        0.197535191107799    0.804712061400479    0.678388787621052  0.0000
  O3     O3        0.017461116132925    0.997673432023849    0.448141119261485  0.0000
  O3     O3        0.909312098963562    0.054285403499142    0.188400589195017  0.0000
  O3     O3        0.945113213113715    0.000228745452147    0.691173181032600  0.0000
  O3     O3        0.016300510329717    0.004848758711147    0.960149356236263  0.0000
