data_c00132.vasp
_audit_creation_method             Generated by GULP
_audit_author_name                 Salvador R. G. Balestra
_symmetry_space_group_name_H-M     'P 1             '
_symmetry_Int_Tables_number        1

loop_
_symmetry_equiv_pos_site_id
_symmetry_equiv_pos_as_xyz
_cell_length_a                        9.1477
_cell_length_b                        7.6524
_cell_length_c                       10.1292
_cell_angle_alpha                   91.1509
_cell_angle_beta                   107.6420
_cell_angle_gamma                   88.0410

loop_
_atom_site_label
_atom_site_type_symbol
_atom_site_fract_x
_atom_site_fract_y
_atom_site_fract_z
_atom_site_charge
  Ge     Ge        0.331050000000005    0.296920000000000    0.607380000000035  0.0000
  Ge     Ge        0.370142556770735    0.707043345644642    0.605987877224957  0.0000
  Ge     Ge        0.125824441948422    0.992856632151171    0.624618411088735  0.0000
  Ge     Ge        0.116621243609346    0.956386227494515    0.138903125771653  0.0000
  Si     Si        0.331687313024461    0.256632202632153    0.300712076211461  0.0000
  Si     Si        0.690867627571453    0.243956854655437    0.697981997355564  0.0000
  Si     Si        0.727216594760540    0.635286694684769    0.697865729199506  0.0000
  Si     Si        0.356485985726373    0.667688173221526    0.295017822414279  0.0000
  Si     Si        0.680871676301257    0.225169731186253    0.382961075223575  0.0000
  Si     Si        0.707020898945729    0.623715805233414    0.381088548310714  0.0000
  Si     Si        0.901739142588516    0.922407242050886    0.326036503605170  0.0000
  Si     Si        0.918932530042819    0.947459732554115    0.821548675150114  0.0000
  O3     O3        0.317551161566272    0.200891687729388    0.447133463334559  0.0000
  O2     O2        0.690421602014846    0.193647163257530    0.541863866124933  0.0000
  O2     O2        0.729625760410241    0.670546337227919    0.541424602742369  0.0000
  O3     O3        0.352660644571146    0.761115463319517    0.436729514089945  0.0000
  O2     O2        0.303913052033283    0.467172652422595    0.291059384823998  0.0000
  O2     O2        0.770005242145666    0.432381966219830    0.737514363172561  0.0000
  O2     O2        0.503445585417972    0.210170097745244    0.291084768674469  0.0000
  O3     O3        0.520046625095396    0.256402913164204    0.706850627799541  0.0000
  O3     O3        0.559059272415176    0.681053709878210    0.704342986651968  0.0000
  O2     O2        0.532073191066148    0.667390515915604    0.289886350751846  0.0000
  O3     O3        0.208477735426102    0.152376163770885    0.183884749195554  0.0000
  O2     O2        0.786832300727958    0.099698077510310    0.805674110208112  0.0000
  O2     O2        0.846601026621542    0.755198718295325    0.808761484401781  0.0000
  O3     O3        0.242971778619349    0.777808423980467    0.172703843074075  0.0000
  O1     O1        0.283732586987397    0.511883553818949    0.604122601635563  0.0000
  O2     O2        0.743618365635707    0.416784543980532    0.365849915444562  0.0000
  O1     O1        0.194353318643605    0.198241936308968    0.659685378104150  0.0000
  O2     O2        0.784655035764844    0.082583071772448    0.333166593242498  0.0000
  O2     O2        0.821056190229945    0.737086597743102    0.326416687027065  0.0000
  O1     O1        0.287249990011341    0.860799527543246    0.684046321605581  0.0000
  O3     O3        0.056977872483909    0.935239028763193    0.450149010570952  0.0000
  O3     O3        0.954222030729312    0.933500855258340    0.189226374212909  0.0000
  O3     O3        0.979397366505160    0.965125971707726    0.690344414537610  0.0000
  O3     O3        0.054211201801813    0.966241727213548    0.960014556702481  0.0000
