data_c00105.vasp
_audit_creation_method             Generated by GULP
_audit_author_name                 Salvador R. G. Balestra
_symmetry_space_group_name_H-M     'P 1             '
_symmetry_Int_Tables_number        1

loop_
_symmetry_equiv_pos_site_id
_symmetry_equiv_pos_as_xyz
_cell_length_a                        9.0910
_cell_length_b                        7.7021
_cell_length_c                       10.0823
_cell_angle_alpha                   86.5662
_cell_angle_beta                   106.2763
_cell_angle_gamma                   90.9984

loop_
_atom_site_label
_atom_site_type_symbol
_atom_site_fract_x
_atom_site_fract_y
_atom_site_fract_z
_atom_site_charge
  Ge     Ge        0.313819999999964    0.296860000000038    0.309830000000034  0.0000
  Ge     Ge        0.633775450357290    0.748211974354666    0.407768413764704  0.0000
  Ge     Ge        0.075940120020868    0.005044867155459    0.158996479294632  0.0000
  Ge     Ge        0.881151521725481    0.978771895305218    0.838180362760346  0.0000
  Si     Si        0.667500199747392    0.295400459001677    0.714860870271482  0.0000
  Si     Si        0.643304499156503    0.697655272014101    0.725221389641178  0.0000
  Si     Si        0.287011560839457    0.690957354610772    0.315879363403913  0.0000
  Si     Si        0.314213428641280    0.259843860810361    0.630160267542995  0.0000
  Si     Si        0.673069415228279    0.338079920617828    0.407646745294225  0.0000
  Si     Si        0.302189918595188    0.647924781187279    0.634542012591706  0.0000
  Si     Si        0.860261731342168    0.044665302552426    0.341710582868611  0.0000
  Si     Si        0.090364542208204    0.961845631848094    0.629115380934792  0.0000
  O3     O3        0.286364210299328    0.234589598610916    0.468672602625927  0.0000
  O2     O2        0.688027681621004    0.265296762375304    0.564607918567943  0.0000
  O3     O3        0.654159869257185    0.785978104111710    0.578639902102708  0.0000
  O2     O2        0.326531389973257    0.654662011235062    0.482728411547893  0.0000
  O3     O3        0.249971972471381    0.505240078456892    0.252367069142263  0.0000
  O2     O2        0.698669612960792    0.497339972916339    0.745761274214317  0.0000
  O3     O3        0.504760895142644    0.291119416174428    0.316009186881538  0.0000
  O2     O2        0.493767072385695    0.240552045008199    0.711545630676837  0.0000
  O2     O2        0.467634316585996    0.700179476730605    0.734860853141512  0.0000
  O3     O3        0.447492784492218    0.769714632382708    0.302089280094065  0.0000
  O1     O1        0.213098986994448    0.162331209764568    0.189635784837075  0.0000
  O3     O3        0.786375814116280    0.175472367449164    0.826009779078684  0.0000
  O3     O3        0.751906918132349    0.810206759369047    0.840345939101801  0.0000
  O3     O3        0.145777668937117    0.813915871385421    0.252199381320110  0.0000
  O2     O2        0.256987666984156    0.447296325407368    0.663696754879705  0.0000
  O3     O3        0.702897378925002    0.542267022151078    0.398960877958081  0.0000
  O2     O2        0.216760058102423    0.110177478662357    0.686940413123788  0.0000
  O2     O2        0.798698047332603    0.235445818274957    0.357969692707309  0.0000
  O3     O3        0.732131957074746    0.899602837996943    0.334941086273820  0.0000
  O2     O2        0.172499609514863    0.773211562525535    0.653590620133868  0.0000
  O2     O2        0.014080764948573    0.997555609704771    0.465235718697186  0.0000
  O3     O3        0.912193551880018    0.058018575418987    0.202832651137589  0.0000
  O3     O3        0.958199500948713    0.955450854294541    0.702298191203742  0.0000
  O1     O1        0.025914214371685    0.968345609592609    0.986676864464010  0.0000
