data_c00137.vasp
_audit_creation_method             Generated by GULP
_audit_author_name                 Salvador R. G. Balestra
_symmetry_space_group_name_H-M     'P 1             '
_symmetry_Int_Tables_number        1

loop_
_symmetry_equiv_pos_site_id
_symmetry_equiv_pos_as_xyz
_cell_length_a                        9.1669
_cell_length_b                        7.7343
_cell_length_c                       10.2293
_cell_angle_alpha                   89.4094
_cell_angle_beta                   107.3308
_cell_angle_gamma                   90.9195

loop_
_atom_site_label
_atom_site_type_symbol
_atom_site_fract_x
_atom_site_fract_y
_atom_site_fract_z
_atom_site_charge
  Ge     Ge        0.331050000000005    0.296920000000000    0.607380000000035  0.0000
  Ge     Ge        0.873307117656616    0.032727858527559    0.320175481184297  0.0000
  Ge     Ge        0.095054371062814    0.007306732240184    0.130908348858964  0.0000
  Ge     Ge        0.898287270821509    0.020956754205556    0.809770700180604  0.0000
  Si     Si        0.324369761872679    0.300187892842366    0.294224838699022  0.0000
  Si     Si        0.690249883946239    0.331330935470203    0.692875464592879  0.0000
  Si     Si        0.663949780478043    0.729643782133611    0.685236117874551  0.0000
  Si     Si        0.301108875775431    0.700563871438366    0.292121788003094  0.0000
  Si     Si        0.676064028598189    0.334967300401195    0.384169519047072  0.0000
  Si     Si        0.652372011199544    0.735727345008381    0.378525269415090  0.0000
  Si     Si        0.310155524869428    0.697933972573414    0.600122797601122  0.0000
  Si     Si        0.107398518182792    0.999461137407181    0.613575154674991  0.0000
  O3     O3        0.305135167653583    0.242647896042887    0.439032157808362  0.0000
  O2     O2        0.701941881661719    0.281722198414440    0.542579860291947  0.0000
  O2     O2        0.678187464420902    0.787895229521508    0.536578777438264  0.0000
  O2     O2        0.283299856854466    0.740723535612025    0.440451896372173  0.0000
  O2     O2        0.269280880546110    0.497483297114660    0.261222144377946  0.0000
  O2     O2        0.724764535468150    0.534879929873139    0.720073966499320  0.0000
  O2     O2        0.501795839851156    0.287688832280582    0.299553330720387  0.0000
  O3     O3        0.521109021075135    0.284756714043258    0.698542139852766  0.0000
  O2     O2        0.487508413669476    0.733396014603350    0.682590543291687  0.0000
  O2     O2        0.473693800463805    0.750611062729614    0.293950455987506  0.0000
  O3     O3        0.223854782974615    0.176900542691743    0.178851498556330  0.0000
  O3     O3        0.811860628128320    0.220195202111526    0.803195604511645  0.0000
  O3     O3        0.760828456399460    0.859070629122114    0.797550584875326  0.0000
  O3     O3        0.180357611271670    0.809800791240168    0.181397598382651  0.0000
  O3     O3        0.265936788531697    0.502473155211368    0.620585229943275  0.0000
  O2     O2        0.707532308228725    0.539460062357902    0.372167474986567  0.0000
  O3     O3        0.221368416759364    0.159210765546716    0.672681127804386  0.0000
  O3     O3        0.789269809939650    0.230108971407403    0.325540242172062  0.0000
  O3     O3        0.747186942642718    0.862569055573395    0.311530406831845  0.0000
  O2     O2        0.205404514776359    0.824169628600778    0.655937221210594  0.0000
  O3     O3        0.041662896282020    0.015318567323704    0.449776343635121  0.0000
  O1     O1        0.931336243356217    0.031234657484085    0.175651533485891  0.0000
  O3     O3        0.965084452862837    0.995235686545827    0.670612599941965  0.0000
  O1     O1        0.043816633229042    0.004575993686196    0.955295332978435  0.0000
