data_c00112.vasp
_audit_creation_method             Generated by GULP
_audit_author_name                 Salvador R. G. Balestra
_symmetry_space_group_name_H-M     'P 1             '
_symmetry_Int_Tables_number        1

loop_
_symmetry_equiv_pos_site_id
_symmetry_equiv_pos_as_xyz
_cell_length_a                        9.2125
_cell_length_b                        7.7051
_cell_length_c                       10.1857
_cell_angle_alpha                   88.0393
_cell_angle_beta                   108.0066
_cell_angle_gamma                   91.0833

loop_
_atom_site_label
_atom_site_type_symbol
_atom_site_fract_x
_atom_site_fract_y
_atom_site_fract_z
_atom_site_charge
  Ge     Ge        0.313819999999964    0.296860000000038    0.309830000000034  0.0000
  Ge     Ge        0.858045491086779    0.036109656726540    0.327978072010551  0.0000
  Ge     Ge        0.109177368024342    0.987532016211963    0.628768238956290  0.0000
  Ge     Ge        0.069796518871523    0.008331398706847    0.136528540810344  0.0000
  Si     Si        0.684506101924359    0.320701149084432    0.701648397937356  0.0000
  Si     Si        0.665767324493380    0.715647542741901    0.700882687184612  0.0000
  Si     Si        0.282916081213462    0.707093154979401    0.313115716187804  0.0000
  Si     Si        0.335591429206231    0.283865363798985    0.625855663811032  0.0000
  Si     Si        0.666816476548286    0.341673622283131    0.386683130169339  0.0000
  Si     Si        0.633635580002549    0.739640624971505    0.385149023461668  0.0000
  Si     Si        0.315234815214671    0.685285075657366    0.624428505135657  0.0000
  Si     Si        0.891007662842462    0.008901904136261    0.817760744155278  0.0000
  O3     O3        0.307498270712387    0.223323385612270    0.470326687036071  0.0000
  O2     O2        0.685354956677390    0.292811509832098    0.546584048024361  0.0000
  O2     O2        0.669922556041042    0.770934042113737    0.548028806687332  0.0000
  O2     O2        0.278667213878422    0.754077399490502    0.465649366449931  0.0000
  O3     O3        0.248323537724030    0.506579937852099    0.285858067730587  0.0000
  O2     O2        0.729336751250410    0.520167893532673    0.742624087176868  0.0000
  O3     O3        0.497027280602334    0.287176435766974    0.299144401957489  0.0000
  O2     O2        0.515633966795043    0.276485227585547    0.709783120525362  0.0000
  O2     O2        0.493073200918078    0.722101716310155    0.706276668582313  0.0000
  O2     O2        0.453185454839788    0.754183829190425    0.307048424885649  0.0000
  O1     O1        0.197480556341948    0.175628928030652    0.184318908619974  0.0000
  O2     O2        0.803937987331034    0.192963962144037    0.806735235189943  0.0000
  O2     O2        0.769757818966059    0.849537709897049    0.808136094837524  0.0000
  O3     O3        0.157173661263094    0.813971775531468    0.200717154586470  0.0000
  O2     O2        0.278542287703884    0.480714156086805    0.627825732441176  0.0000
  O2     O2        0.691223696268050    0.548029638328380    0.366800094095734  0.0000
  O3     O3        0.237208766943770    0.156319065738129    0.690940819830635  0.0000
  O3     O3        0.791492070595051    0.241233383136119    0.342168870169236  0.0000
  O3     O3        0.718284855973620    0.881584649452507    0.319619622557686  0.0000
  O3     O3        0.208221505869502    0.794838191298942    0.685286185402165  0.0000
  O1     O1        0.027083731214742    0.998490240688788    0.453564880059819  0.0000
  O1     O1        0.906671909119432    0.035861030294164    0.178669375960166  0.0000
  O3     O3        0.957253388469279    0.996639116938467    0.690990090045378  0.0000
  O3     O3        0.024116779274512    0.996795561733775    0.958734859263539  0.0000
