data_c00130.vasp
_audit_creation_method             Generated by GULP
_audit_author_name                 Salvador R. G. Balestra
_symmetry_space_group_name_H-M     'P 1             '
_symmetry_Int_Tables_number        1

loop_
_symmetry_equiv_pos_site_id
_symmetry_equiv_pos_as_xyz
_cell_length_a                        9.1763
_cell_length_b                        7.6774
_cell_length_c                       10.3371
_cell_angle_alpha                   88.7247
_cell_angle_beta                   108.7277
_cell_angle_gamma                   91.6797

loop_
_atom_site_label
_atom_site_type_symbol
_atom_site_fract_x
_atom_site_fract_y
_atom_site_fract_z
_atom_site_charge
  Ge     Ge        0.331050000000005    0.296920000000000    0.607380000000035  0.0000
  Ge     Ge        0.299629128907493    0.708942664303168    0.607671204998532  0.0000
  Ge     Ge        0.866410112541464    0.068763097511015    0.333457364874156  0.0000
  Ge     Ge        0.079341995954891    0.033925403778472    0.138094390163483  0.0000
  Si     Si        0.316767197178322    0.322540336870218    0.299843602028192  0.0000
  Si     Si        0.691384105749470    0.355044670324334    0.693907562799051  0.0000
  Si     Si        0.661245603747112    0.751394143114072    0.693373601585949  0.0000
  Si     Si        0.286444597377319    0.729298761593570    0.300602050985522  0.0000
  Si     Si        0.669101862652824    0.370950309525147    0.385018365278626  0.0000
  Si     Si        0.637558534204610    0.768875065875279    0.383463543792466  0.0000
  Si     Si        0.102577375302764    0.009604883903586    0.633001205952603  0.0000
  Si     Si        0.894089823033331    0.046294266875123    0.818651355086894  0.0000
  O3     O3        0.308358870813390    0.239980526838631    0.441275241923249  0.0000
  O2     O2        0.694575184922142    0.314970591203936    0.542171737891823  0.0000
  O2     O2        0.656070067609245    0.809110666143453    0.540580190401605  0.0000
  O3     O3        0.274530304457766    0.787383046764522    0.444295442056032  0.0000
  O2     O2        0.257225808774786    0.520540024154065    0.289225704888035  0.0000
  O2     O2        0.732827879827198    0.558625916802997    0.729277080887440  0.0000
  O2     O2        0.492272902759424    0.324587751756242    0.297890338114172  0.0000
  O3     O3        0.523497785175217    0.311903987358555    0.701177509169781  0.0000
  O3     O3        0.491055788416456    0.747246055908247    0.702865729391912  0.0000
  O2     O2        0.457716946103165    0.776064857644658    0.294968050212784  0.0000
  O3     O3        0.210912419205367    0.206371181228151    0.179751242198323  0.0000
  O2     O2        0.813171717129116    0.233782611914055    0.802503425476297  0.0000
  O2     O2        0.766448436757500    0.890156851104478    0.799335216494149  0.0000
  O3     O3        0.162705077067959    0.832835772263414    0.183755477984269  0.0000
  O1     O1        0.252055522321025    0.494633195571385    0.611807377610358  0.0000
  O2     O2        0.701867321851105    0.577314382775976    0.374453491985455  0.0000
  O3     O3        0.245780240754338    0.144452837364372    0.685115142587128  0.0000
  O3     O3        0.784246279550274    0.269786950475646    0.329895759315803  0.0000
  O3     O3        0.730214743542869    0.906216344531405    0.323002313772451  0.0000
  O3     O3        0.171678418739617    0.818915145280599    0.664979917410158  0.0000
  O3     O3        0.028794284709382    0.047649339554559    0.471350091313774  0.0000
  O1     O1        0.925154196741038    0.060802661741849    0.192478743390811  0.0000
  O2     O2        0.970817567637259    0.032497696218256    0.699983046366117  0.0000
  O3     O3        0.021004807728841    0.031549325261922    0.962126914720019  0.0000
