data_c00129.vasp
_audit_creation_method             Generated by GULP
_audit_author_name                 Salvador R. G. Balestra
_symmetry_space_group_name_H-M     'P 1             '
_symmetry_Int_Tables_number        1

loop_
_symmetry_equiv_pos_site_id
_symmetry_equiv_pos_as_xyz
_cell_length_a                        9.2148
_cell_length_b                        7.6281
_cell_length_c                       10.3602
_cell_angle_alpha                   92.2470
_cell_angle_beta                   110.2859
_cell_angle_gamma                   87.8300

loop_
_atom_site_label
_atom_site_type_symbol
_atom_site_fract_x
_atom_site_fract_y
_atom_site_fract_z
_atom_site_charge
  Ge     Ge        0.331050000000005    0.296920000000000    0.607380000000035  0.0000
  Ge     Ge        0.379656719548795    0.710341173400258    0.608283630253266  0.0000
  Ge     Ge        0.886038525506586    0.916858311093830    0.353420516317384  0.0000
  Ge     Ge        0.140655617059296    0.996458431646683    0.666142740272256  0.0000
  Si     Si        0.298453554926279    0.262868140151599    0.293240349222294  0.0000
  Si     Si        0.693460351318778    0.239524050567710    0.680076976321506  0.0000
  Si     Si        0.733977763165383    0.638441222671862    0.679415377619209  0.0000
  Si     Si        0.330127294739756    0.667107308481989    0.289161935690113  0.0000
  Si     Si        0.650953523909021    0.216676234911336    0.366246271187158  0.0000
  Si     Si        0.681219844637547    0.613876388255114    0.362830852535107  0.0000
  Si     Si        0.093309533840603    0.954936610734841    0.156310335803498  0.0000
  Si     Si        0.932051927562440    0.946665639142752    0.840711480716136  0.0000
  O3     O3        0.292724641685914    0.217634408602316    0.440009262748758  0.0000
  O2     O2        0.682758747939125    0.177526362236787    0.526154420126907  0.0000
  O2     O2        0.714417510185786    0.673602718017008    0.521785050898374  0.0000
  O3     O3        0.339933583169678    0.749451949474338    0.435949905966154  0.0000
  O2     O2        0.261565039535576    0.470950910408566    0.269014719676556  0.0000
  O2     O2        0.769320444706510    0.432200305097319    0.712871723554001  0.0000
  O2     O2        0.467321390037813    0.214927693467883    0.285024587048148  0.0000
  O3     O3        0.526354616796532    0.248028006003523    0.693798097644454  0.0000
  O3     O3        0.575194799931681    0.695237090373903    0.699769409990938  0.0000
  O2     O2        0.500660228866664    0.657422896520144    0.277449353257549  0.0000
  O2     O2        0.173884601490698    0.144328232434609    0.178806624274725  0.0000
  O2     O2        0.802486684461992    0.098924680556096    0.782013440557805  0.0000
  O2     O2        0.872002958865516    0.754307362827508    0.778817504222499  0.0000
  O2     O2        0.219429340149021    0.794931752655255    0.173633702934132  0.0000
  O1     O1        0.297443401557567    0.516522633597845    0.617228087103918  0.0000
  O2     O2        0.715597951763257    0.406578399480656    0.353130686593083  0.0000
  O1     O1        0.199232350261894    0.206160321688227    0.663630040139460  0.0000
  O3     O3        0.740413755988853    0.076520362394044    0.304133782010678  0.0000
  O3     O3        0.793030861128762    0.717772735155205    0.308734482511779  0.0000
  O1     O1        0.306987799346935    0.876595552048352    0.681893408895721  0.0000
  O1     O1        0.989891448086607    0.929351182627375    0.524706146041169  0.0000
  O3     O3        0.009670626448631    0.932796642769353    0.265254518592637  0.0000
  O3     O3        0.084293130840518    0.982108625989725    0.807704229738164  0.0000
  O2     O2        0.969473786809861    0.945519558475883    0.003761055735103  0.0000
