data_c00138.vasp
_audit_creation_method             Generated by GULP
_audit_author_name                 Salvador R. G. Balestra
_symmetry_space_group_name_H-M     'P 1             '
_symmetry_Int_Tables_number        1

loop_
_symmetry_equiv_pos_site_id
_symmetry_equiv_pos_as_xyz
_cell_length_a                        9.1140
_cell_length_b                        7.6890
_cell_length_c                       10.2272
_cell_angle_alpha                   88.7320
_cell_angle_beta                   107.8694
_cell_angle_gamma                   91.3056

loop_
_atom_site_label
_atom_site_type_symbol
_atom_site_fract_x
_atom_site_fract_y
_atom_site_fract_z
_atom_site_charge
  Ge     Ge        0.331050000000005    0.296920000000000    0.607380000000035  0.0000
  Ge     Ge        0.096966495580973    0.001737379281523    0.670124085952316  0.0000
  Ge     Ge        0.063944111438903    0.033523691514846    0.174469411010891  0.0000
  Ge     Ge        0.875119951210299    0.044144168355838    0.852211686674191  0.0000
  Si     Si        0.306506180526625    0.321301617187033    0.292419602815316  0.0000
  Si     Si        0.683744042244503    0.361661923315023    0.695681209267679  0.0000
  Si     Si        0.639847460433383    0.753498439366853    0.687070652403978  0.0000
  Si     Si        0.277457488764717    0.725117204060400    0.293327970517601  0.0000
  Si     Si        0.654856792798447    0.371877838421731    0.377491761330548  0.0000
  Si     Si        0.632328636859513    0.764837812689952    0.377730193171161  0.0000
  Si     Si        0.283145830004523    0.702913030240365    0.595471451664029  0.0000
  Si     Si        0.857660655844809    0.063885961600305    0.376684815093062  0.0000
  O3     O3        0.305001034793321    0.241042392447433    0.438926794724067  0.0000
  O2     O2        0.663345532136975    0.339227978598271    0.534589100232092  0.0000
  O2     O2        0.658008266941204    0.799233939201630    0.537876658402274  0.0000
  O2     O2        0.255984251928330    0.774218084803409    0.439394933377386  0.0000
  O2     O2        0.246868577098077    0.519524785768690    0.271231535837564  0.0000
  O2     O2        0.714203268562034    0.564883014303823    0.735752001374002  0.0000
  O2     O2        0.481485855141895    0.323389283273647    0.284586717620377  0.0000
  O3     O3        0.520857285735855    0.297225600457265    0.709968624629997  0.0000
  O2     O2        0.461196251122495    0.745878606298518    0.680377058323642  0.0000
  O2     O2        0.451515288157855    0.776430449495702    0.294320071478545  0.0000
  O3     O3        0.195534069608058    0.202143547073847    0.177542574219820  0.0000
  O3     O3        0.822546952838114    0.252925640855406    0.789678304904678  0.0000
  O3     O3        0.723370350632731    0.898951606739660    0.791202438206491  0.0000
  O3     O3        0.157734505646796    0.837572635929911    0.179791916806782  0.0000
  O3     O3        0.251225567236085    0.499620659192490    0.601250393070350  0.0000
  O2     O2        0.693788253635774    0.574785182180460    0.355007960111545  0.0000
  O1     O1        0.238854138558375    0.154148597381764    0.685195916690273  0.0000
  O2     O2        0.774298018328142    0.250785193357381    0.335881549807781  0.0000
  O2     O2        0.729739639152992    0.909399694872287    0.322203223153456  0.0000
  O3     O3        0.166915725322706    0.798713533611688    0.655817733176653  0.0000
  O3     O3        0.930227789829328    0.049994886731835    0.539808090095308  0.0000
  O3     O3        0.993972128249893    0.052344019611246    0.312122200259984  0.0000
  O1     O1        0.037686022050155    0.992217821380575    0.813992769091247  0.0000
  O1     O1        0.915415402514148    0.044824448253422    0.026972452953638  0.0000
