data_c00116.vasp
_audit_creation_method             Generated by GULP
_audit_author_name                 Salvador R. G. Balestra
_symmetry_space_group_name_H-M     'P 1             '
_symmetry_Int_Tables_number        1

loop_
_symmetry_equiv_pos_site_id
_symmetry_equiv_pos_as_xyz
_cell_length_a                        9.0506
_cell_length_b                        7.5538
_cell_length_c                       10.4424
_cell_angle_alpha                   87.7065
_cell_angle_beta                   108.7879
_cell_angle_gamma                   92.7253

loop_
_atom_site_label
_atom_site_type_symbol
_atom_site_fract_x
_atom_site_fract_y
_atom_site_fract_z
_atom_site_charge
  Ge     Ge        0.331050000000005    0.296920000000000    0.607380000000035  0.0000
  Ge     Ge        0.678886790715764    0.406092275112949    0.381781025445661  0.0000
  Ge     Ge        0.630180713519369    0.818263612996047    0.384000121733440  0.0000
  Ge     Ge        0.282338205873182    0.709094255425282    0.609587615538897  0.0000
  Si     Si        0.312970453358811    0.334285654145673    0.299818056287501  0.0000
  Si     Si        0.694252691458631    0.378172948247723    0.688767545273239  0.0000
  Si     Si        0.648262809146067    0.780895025504679    0.691558786372801  0.0000
  Si     Si        0.266980794232428    0.737011770996032    0.302606139029743  0.0000
  Si     Si        0.872175961719077    0.105893980498133    0.344436352226038  0.0000
  Si     Si        0.089064114655863    0.009295649865808    0.646966101490515  0.0000
  Si     Si        0.073376849057645    0.047420528839975    0.152557309802112  0.0000
  Si     Si        0.887856375082158    0.067762539207530    0.838832469862724  0.0000
  O3     O3        0.262519446283125    0.294992249017858    0.432306115049183  0.0000
  O3     O3        0.746525035824150    0.396548839499267    0.556980213332410  0.0000
  O3     O3        0.698718333352793    0.820189289248372    0.559072886657168  0.0000
  O3     O3        0.214696669740662    0.718641925059963    0.434388235075149  0.0000
  O2     O2        0.282213008280778    0.540819061735278    0.251436652401333  0.0000
  O2     O2        0.679028841040853    0.574364616314546    0.739943861162541  0.0000
  O3     O3        0.494388964011572    0.303288234548579    0.328326828438378  0.0000
  O3     O3        0.529038117779991    0.273180731427827    0.653370288091638  0.0000
  O3     O3        0.466841524170565    0.811883500965950    0.663044735427848  0.0000
  O3     O3        0.432194561813187    0.842009394632565    0.338015727277736  0.0000
  O2     O2        0.207728596148286    0.202944011588984    0.184965851359443  0.0000
  O2     O2        0.817018733829842    0.262351072908873    0.804546607919317  0.0000
  O2     O2        0.753500431688667    0.912244953044366    0.806405223003985  0.0000
  O2     O2        0.144225826550029    0.852833203518072    0.186816163526142  0.0000
  O1     O1        0.290112503958271    0.493597916768432    0.662722873835283  0.0000
  O1     O1        0.671104570076681    0.621586930058350    0.328645582762265  0.0000
  O3     O3        0.248457804554394    0.126895885713449    0.676349070646424  0.0000
  O3     O3        0.817961425854899    0.306137309716663    0.331798101633742  0.0000
  O3     O3        0.712787481509539    0.988277300821365    0.315033619988928  0.0000
  O3     O3        0.143262922290599    0.809050526532183    0.659567833484211  0.0000
  O2     O2        0.980604154313597    0.057622850297677    0.495714138874078  0.0000
  O2     O2        0.955182927545317    0.072878966371367    0.235356297757228  0.0000
  O2     O2        0.006104831374195    0.042280018650328    0.756088171366003  0.0000
  O2     O2        0.980584816931482    0.057600461934465    0.995702083654926  0.0000
