data_c00133.vasp
_audit_creation_method             Generated by GULP
_audit_author_name                 Salvador R. G. Balestra
_symmetry_space_group_name_H-M     'P 1             '
_symmetry_Int_Tables_number        1

loop_
_symmetry_equiv_pos_site_id
_symmetry_equiv_pos_as_xyz
_cell_length_a                        9.0346
_cell_length_b                        7.6318
_cell_length_c                       10.3536
_cell_angle_alpha                   92.4324
_cell_angle_beta                   109.1757
_cell_angle_gamma                   87.5037

loop_
_atom_site_label
_atom_site_type_symbol
_atom_site_fract_x
_atom_site_fract_y
_atom_site_fract_z
_atom_site_charge
  Ge     Ge        0.331050000000005    0.296920000000000    0.607380000000035  0.0000
  Ge     Ge        0.397827124370765    0.703452127302090    0.612819409002763  0.0000
  Ge     Ge        0.152691054373942    0.989220606605310    0.669264342200145  0.0000
  Ge     Ge        0.942599997123305    0.927174918423956    0.855560222585054  0.0000
  Si     Si        0.322037490260324    0.244392769101669    0.300261446167746  0.0000
  Si     Si        0.697358069761780    0.220269140840833    0.691111316338219  0.0000
  Si     Si        0.752866417257132    0.610717455393217    0.694729517992652  0.0000
  Si     Si        0.355974963296548    0.648043567049961    0.295442024667456  0.0000
  Si     Si        0.679552171847610    0.196872917173970    0.381881508488372  0.0000
  Si     Si        0.708740303317294    0.592241257889048    0.378277299366140  0.0000
  Si     Si        0.912050096804654    0.895152791072188    0.371546601564479  0.0000
  Si     Si        0.112451125697676    0.935245004925986    0.174209536767163  0.0000
  O3     O3        0.310209844140741    0.207803040196641    0.445870160119249  0.0000
  O2     O2        0.698762546826611    0.161996295878851    0.538968975138869  0.0000
  O2     O2        0.722071189858888    0.639519705057612    0.533940604401823  0.0000
  O3     O3        0.369074270849428    0.733232396006511    0.441777958216820  0.0000
  O2     O2        0.286813129438462    0.452283279373002    0.272547468563737  0.0000
  O2     O2        0.785338979073028    0.405387708061147    0.729517013605622  0.0000
  O2     O2        0.495738262190748    0.192292030493154    0.293929908638991  0.0000
  O3     O3        0.525425936280237    0.247025364490443    0.699728989268973  0.0000
  O3     O3        0.591172968437393    0.679011268866991    0.714470427402665  0.0000
  O2     O2        0.530450264425758    0.636675753744429    0.282286097665255  0.0000
  O2     O2        0.196005533154234    0.122845784731187    0.190216380157576  0.0000
  O3     O3        0.786503026942369    0.071785645594024    0.792358278734343  0.0000
  O3     O3        0.896514733584458    0.716440148194340    0.789629059570788  0.0000
  O2     O2        0.240943078060572    0.776321772557183    0.182965332789908  0.0000
  O1     O1        0.299857297152625    0.517042012699354    0.616631997291438  0.0000
  O2     O2        0.747621088443577    0.384678075113925    0.364675713521528  0.0000
  O1     O1        0.192575743302096    0.204039502226456    0.657682957893021  0.0000
  O2     O2        0.777250167687854    0.048610033454334    0.327359038415500  0.0000
  O2     O2        0.829687572075476    0.705959680871933    0.334250964502076  0.0000
  O1     O1        0.325465413565059    0.878958285325497    0.681106261293505  0.0000
  O3     O3        0.002151087350003    0.906931705132618    0.532109124978315  0.0000
  O2     O2        0.033952330129257    0.912314876055499    0.291215993246416  0.0000
  O1     O1        0.101638774106629    0.978520686303697    0.813453036643049  0.0000
  O3     O3        0.980672926490146    0.926549466716426    0.029431532120975  0.0000
