data_c00100.vasp
_audit_creation_method             Generated by GULP
_audit_author_name                 Salvador R. G. Balestra
_symmetry_space_group_name_H-M     'P 1             '
_symmetry_Int_Tables_number        1

loop_
_symmetry_equiv_pos_site_id
_symmetry_equiv_pos_as_xyz
_cell_length_a                        9.1064
_cell_length_b                        7.6176
_cell_length_c                       10.5024
_cell_angle_alpha                   87.1472
_cell_angle_beta                   109.6155
_cell_angle_gamma                   91.8692

loop_
_atom_site_label
_atom_site_type_symbol
_atom_site_fract_x
_atom_site_fract_y
_atom_site_fract_z
_atom_site_charge
  Ge     Ge        0.313819999999964    0.296860000000038    0.309830000000034  0.0000
  Ge     Ge        0.631083201973882    0.775148501662605    0.379084699374410  0.0000
  Ge     Ge        0.877843030364209    0.069512594217269    0.359539191540813  0.0000
  Ge     Ge        0.122081018045725    0.987747583910378    0.672752924913364  0.0000
  Si     Si        0.705595730106115    0.342911217278101    0.690392668360646  0.0000
  Si     Si        0.671461658568453    0.738999991884021    0.691185148675206  0.0000
  Si     Si        0.271166217179458    0.712605511338967    0.308589753217792  0.0000
  Si     Si        0.346988980142578    0.281055499207368    0.618882360146779  0.0000
  Si     Si        0.672470322900497    0.368598162429193    0.384034626827783  0.0000
  Si     Si        0.310679064759214    0.685056648379865    0.614108725257417  0.0000
  Si     Si        0.074453726817953    0.022889580555014    0.159444274051703  0.0000
  Si     Si        0.903395370865487    0.025223027657926    0.847929944141006  0.0000
  O3     O3        0.277005707878425    0.245649199540108    0.459447730014679  0.0000
  O2     O2        0.734389584296013    0.358732961106848    0.548265687690291  0.0000
  O3     O3        0.706002858100453    0.785807316430290    0.553864350777285  0.0000
  O2     O2        0.240131516301916    0.718200043553931    0.451647624675953  0.0000
  O3     O3        0.270249151080642    0.515989729014022    0.264462737582057  0.0000
  O2     O2        0.721874246852696    0.539168010409021    0.746572707390761  0.0000
  O3     O3        0.507775076231125    0.264793169750909    0.335188291468848  0.0000
  O2     O2        0.533882195512641    0.261722519048413    0.669744504021383  0.0000
  O2     O2        0.488339725729826    0.759450376705086    0.666362319264634  0.0000
  O3     O3        0.433802854543330    0.812698402267840    0.325277688260699  0.0000
  O3     O3        0.214691270405211    0.163631414500414    0.180069632497331  0.0000
  O2     O2        0.834536935478412    0.216966174850553    0.791033008824785  0.0000
  O2     O2        0.771051500812879    0.873830027812102    0.801246907818352  0.0000
  O2     O2        0.135301021559978    0.823915545081164    0.198505370946770  0.0000
  O2     O2        0.306487828610904    0.477219653113840    0.646990127720030  0.0000
  O3     O3        0.652702278769416    0.567362214568969    0.329775381930939  0.0000
  O3     O3        0.269242116981980    0.145225835056396    0.697039509077609  0.0000
  O3     O3        0.797674998769697    0.276474621530636    0.337149340099842  0.0000
  O1     O1        0.728540620026624    0.917392451117126    0.306474561676136  0.0000
  O3     O3        0.206804101666640    0.784365642730364    0.680582064557835  0.0000
  O1     O1        0.971392313966565    0.018805317441744    0.527114564044634  0.0000
  O3     O3        0.995328257008675    0.084957793465239    0.264042578968363  0.0000
  O3     O3        0.052288983250570    0.988415511294279    0.806598544635722  0.0000
  O2     O2        0.953618381005980    0.027353582629004    0.009314928978983  0.0000
