data_c00111.vasp
_audit_creation_method             Generated by GULP
_audit_author_name                 Salvador R. G. Balestra
_symmetry_space_group_name_H-M     'P 1             '
_symmetry_Int_Tables_number        1

loop_
_symmetry_equiv_pos_site_id
_symmetry_equiv_pos_as_xyz
_cell_length_a                        9.0570
_cell_length_b                        7.7023
_cell_length_c                       10.1963
_cell_angle_alpha                   89.4109
_cell_angle_beta                   106.5805
_cell_angle_gamma                   88.7989

loop_
_atom_site_label
_atom_site_type_symbol
_atom_site_fract_x
_atom_site_fract_y
_atom_site_fract_z
_atom_site_charge
  Ge     Ge        0.313819999999964    0.296860000000038    0.309830000000034  0.0000
  Ge     Ge        0.351958623401228    0.695749121457275    0.635366157974031  0.0000
  Ge     Ge        0.100055940075829    0.988348136302234    0.188260831714136  0.0000
  Ge     Ge        0.902923460949346    0.949306969015199    0.871163958710757  0.0000
  Si     Si        0.668337642793883    0.246775865535033    0.706916921475436  0.0000
  Si     Si        0.708781035825175    0.637807192500639    0.725033699413704  0.0000
  Si     Si        0.343238008032097    0.703520662508150    0.323122459042680  0.0000
  Si     Si        0.313732747930491    0.290419925815809    0.618599810501717  0.0000
  Si     Si        0.673789518935141    0.257557285099438    0.399431132937299  0.0000
  Si     Si        0.695616006936288    0.650901290705638    0.412776950020888  0.0000
  Si     Si        0.902375161569468    0.956659597407796    0.402572672496495  0.0000
  Si     Si        0.129620053528066    0.990353822034284    0.694385227240846  0.0000
  O3     O3        0.294972480956641    0.227466844411920    0.466068121043829  0.0000
  O2     O2        0.674285131309179    0.208140925449348    0.553578720578667  0.0000
  O2     O2        0.704063974923968    0.685800727921266    0.569435017603664  0.0000
  O3     O3        0.338320222302460    0.767576663697516    0.471815464898094  0.0000
  O3     O3        0.270932603873130    0.515139388581838    0.291842620500784  0.0000
  O2     O2        0.745346829113240    0.432020009270667    0.754468395477654  0.0000
  O3     O3        0.500819332048340    0.252628696513550    0.303776278953449  0.0000
  O2     O2        0.491337096609736    0.258736222860235    0.708159857330918  0.0000
  O3     O3        0.540337831480048    0.687092704516202    0.737463763599159  0.0000
  O2     O2        0.521365964811497    0.688985543493020    0.320816400519240  0.0000
  O1     O1        0.182580760852660    0.186747542017947    0.188305442551188  0.0000
  O3     O3        0.752940119052107    0.095779392407808    0.807639258824112  0.0000
  O3     O3        0.840711793451705    0.741458690412829    0.828006290272321  0.0000
  O3     O3        0.250222626089992    0.836943206943191    0.208257264823696  0.0000
  O3     O3        0.271661318744883    0.491998724169681    0.623547695534421  0.0000
  O2     O2        0.741130947035986    0.450614194153136    0.393124449445128  0.0000
  O2     O2        0.204802017113929    0.175302602751965    0.682711345115479  0.0000
  O2     O2        0.784435132065754    0.121128509844186    0.352232940248548  0.0000
  O2     O2        0.809893937046546    0.777563414054694    0.365642254961744  0.0000
  O3     O3        0.253018433169286    0.834667036015546    0.711856313332275  0.0000
  O2     O2        0.979642458724376    0.960779240164125    0.566008808991807  0.0000
  O3     O3        0.033209423206838    0.960172035781883    0.329682867036557  0.0000
  O3     O3        0.067518981887156    0.994945981388243    0.826108675924724  0.0000
  O1     O1        0.952630479463992    0.959589470429316    0.045473413419097  0.0000
