data_c00118.vasp
_audit_creation_method             Generated by GULP
_audit_author_name                 Salvador R. G. Balestra
_symmetry_space_group_name_H-M     'P 1             '
_symmetry_Int_Tables_number        1

loop_
_symmetry_equiv_pos_site_id
_symmetry_equiv_pos_as_xyz
_cell_length_a                        9.0906
_cell_length_b                        7.6093
_cell_length_c                       10.4314
_cell_angle_alpha                   92.2638
_cell_angle_beta                   109.2167
_cell_angle_gamma                   87.2737

loop_
_atom_site_label
_atom_site_type_symbol
_atom_site_fract_x
_atom_site_fract_y
_atom_site_fract_z
_atom_site_charge
  Ge     Ge        0.331050000000005    0.296920000000000    0.607380000000035  0.0000
  Ge     Ge        0.672188514987685    0.192050781757618    0.379052366966562  0.0000
  Ge     Ge        0.714373285218854    0.602027293524968    0.374546663712019  0.0000
  Ge     Ge        0.135781305904030    0.989691692999601    0.653676362384655  0.0000
  Si     Si        0.306668806255526    0.262748777647792    0.300181270360299  0.0000
  Si     Si        0.700167458079914    0.231551730757789    0.689253887645930  0.0000
  Si     Si        0.735969703546530    0.630091129011082    0.685519975480341  0.0000
  Si     Si        0.350030697655085    0.663612908673161    0.295904608871932  0.0000
  Si     Si        0.376729074103674    0.699875784965970    0.602188462234934  0.0000
  Si     Si        0.906836590002670    0.904097545341110    0.347370430061962  0.0000
  Si     Si        0.111006147677616    0.954399279709635    0.158152551146968  0.0000
  Si     Si        0.933613039942156    0.938152872073816    0.845217131971492  0.0000
  O3     O3        0.254909483268436    0.269183110382734    0.432202165972317  0.0000
  O3     O3        0.746235308581881    0.192935381416896    0.554789962349554  0.0000
  O3     O3        0.780183615401970    0.621651672220500    0.549954514695365  0.0000
  O2     O2        0.315917914434186    0.700296553239204    0.437484600849178  0.0000
  O2     O2        0.313519507408487    0.459796584933242    0.248798122496301  0.0000
  O2     O2        0.740968661167118    0.433542413065582    0.740555773430983  0.0000
  O3     O3        0.475503267305917    0.168309839902096    0.336849175627644  0.0000
  O3     O3        0.519361917153665    0.206876113651786    0.663273364883616  0.0000
  O2     O2        0.562911585740921    0.716508577372665    0.653358279620510  0.0000
  O3     O3        0.527607266841136    0.695947378876536    0.313708313335817  0.0000
  O2     O2        0.189352967731488    0.144161355476938    0.181659346584225  0.0000
  O2     O2        0.807214353623264    0.098865276990179    0.800961541885217  0.0000
  O2     O2        0.856050470014702    0.750600509925929    0.797107324862840  0.0000
  O2     O2        0.239728626852155    0.794266010573653    0.183901251890910  0.0000
  O3     O3        0.332183928255864    0.517905265576978    0.649823943058546  0.0000
  O1     O1        0.712867162124420    0.387866662923683    0.324253156504099  0.0000
  O1     O1        0.205570299312227    0.197971248013740    0.668852419575863  0.0000
  O3     O3        0.749475695914374    0.025973234763559    0.303498728427584  0.0000
  O3     O3        0.850021586037103    0.706070760281288    0.324095333281132  0.0000
  O3     O3        0.300073685483450    0.859793910051821    0.660842695584967  0.0000
  O3     O3        0.987530870170865    0.951635048642872    0.505878966479227  0.0000
  O2     O2        0.017154466540013    0.941123784866782    0.262416038438763  0.0000
  O3     O3        0.076732304302158    0.956974746312309    0.790799823769155  0.0000
  O2     O2        0.994410565509603    0.939540708550060    0.007291732820132  0.0000
