data_c00108.vasp
_audit_creation_method             Generated by GULP
_audit_author_name                 Salvador R. G. Balestra
_symmetry_space_group_name_H-M     'P 1             '
_symmetry_Int_Tables_number        1

loop_
_symmetry_equiv_pos_site_id
_symmetry_equiv_pos_as_xyz
_cell_length_a                        9.0992
_cell_length_b                        7.7252
_cell_length_c                       10.1387
_cell_angle_alpha                   87.6402
_cell_angle_beta                   107.1289
_cell_angle_gamma                   91.8145

loop_
_atom_site_label
_atom_site_type_symbol
_atom_site_fract_x
_atom_site_fract_y
_atom_site_fract_z
_atom_site_charge
  Ge     Ge        0.313819999999964    0.296860000000038    0.309830000000034  0.0000
  Ge     Ge        0.304372523066348    0.671600727763520    0.635707899523223  0.0000
  Ge     Ge        0.880364736198315    0.031203926789596    0.397784082006407  0.0000
  Ge     Ge        0.894875203801593    0.002707974267187    0.875777339213911  0.0000
  Si     Si        0.683919999488203    0.308412786224170    0.708563433070126  0.0000
  Si     Si        0.664260983115737    0.707801928463569    0.714257067179758  0.0000
  Si     Si        0.288450276031790    0.698246337217034    0.316329284742393  0.0000
  Si     Si        0.331257572612758    0.267620577636579    0.630879759460516  0.0000
  Si     Si        0.673089535109854    0.336047451996275    0.398626582146256  0.0000
  Si     Si        0.645261809818464    0.732526544290825    0.402832864108450  0.0000
  Si     Si        0.115231997473317    0.973296639463101    0.697728645519300  0.0000
  Si     Si        0.083299966183388    0.003668087539611    0.189321867953749  0.0000
  O3     O3        0.308266315842105    0.229669804182078    0.472474347145892  0.0000
  O2     O2        0.688151497836328    0.265713287322057    0.555223810908390  0.0000
  O2     O2        0.664379633958371    0.778506856352871    0.561606646968962  0.0000
  O3     O3        0.272275201973669    0.735129081256262    0.465448267831264  0.0000
  O3     O3        0.241998090482922    0.503343446000978    0.275261543266392  0.0000
  O2     O2        0.723010643251433    0.510746489820825    0.736805026885404  0.0000
  O3     O3        0.501324095108031    0.297332391641428    0.304034541773141  0.0000
  O2     O2        0.511684309842633    0.266500540638944    0.716420622475331  0.0000
  O3     O3        0.493186567243453    0.713212652230866    0.726827943982763  0.0000
  O2     O2        0.465594822427844    0.734415617182505    0.318346148297400  0.0000
  O3     O3        0.200702875426423    0.163803955473924    0.188079284105230  0.0000
  O3     O3        0.804709933624442    0.196203717220205    0.820178467554969  0.0000
  O3     O3        0.775034990096553    0.825871977891773    0.826826055564690  0.0000
  O2     O2        0.178712864862650    0.826879776446080    0.204337351996562  0.0000
  O3     O3        0.262847642800666    0.452000598915760    0.645203373583757  0.0000
  O2     O2        0.710020910780370    0.541562540404194    0.396080157455291  0.0000
  O2     O2        0.248610025889427    0.113781900271984    0.694707438706463  0.0000
  O3     O3        0.795143733317568    0.231282661276197    0.351233368945697  0.0000
  O3     O3        0.740270772606599    0.871221623500063    0.340498145446136  0.0000
  O3     O3        0.179622899565359    0.782502177800537    0.697420014236970  0.0000
  O3     O3        0.960901323693785    0.005302055802271    0.573240261614555  0.0000
  O3     O3        0.023179996184452    0.021611000713232    0.321821623176499  0.0000
  O3     O3        0.064588290607483    0.989812623431228    0.834746651911746  0.0000
  O3     O3        0.941831161445576    0.002893033589642    0.053589294897782  0.0000
