data_c00121.vasp
_audit_creation_method             Generated by GULP
_audit_author_name                 Salvador R. G. Balestra
_symmetry_space_group_name_H-M     'P 1             '
_symmetry_Int_Tables_number        1

loop_
_symmetry_equiv_pos_site_id
_symmetry_equiv_pos_as_xyz
_cell_length_a                        9.2440
_cell_length_b                        7.6719
_cell_length_c                       10.3566
_cell_angle_alpha                   88.5348
_cell_angle_beta                   110.2667
_cell_angle_gamma                   91.8800

loop_
_atom_site_label
_atom_site_type_symbol
_atom_site_fract_x
_atom_site_fract_y
_atom_site_fract_z
_atom_site_charge
  Ge     Ge        0.331050000000005    0.296920000000000    0.607380000000035  0.0000
  Ge     Ge        0.642309776608768    0.360727782465014    0.357750202779981  0.0000
  Ge     Ge        0.842011722155932    0.054799598663390    0.308832622572554  0.0000
  Ge     Ge        0.096104459300873    0.996284662421262    0.623368109913302  0.0000
  Si     Si        0.286250789034966    0.313035251196974    0.287764001181830  0.0000
  Si     Si        0.686488764649166    0.341159061457758    0.679672231956053  0.0000
  Si     Si        0.655062853784016    0.738363329609148    0.676347888304730  0.0000
  Si     Si        0.259988536119918    0.716113599603074    0.292888098316480  0.0000
  Si     Si        0.613550690221430    0.765129559667968    0.364308578822873  0.0000
  Si     Si        0.298546317694278    0.697522360215494    0.601259292098721  0.0000
  Si     Si        0.051288620368794    0.016820128736403    0.129765725847745  0.0000
  Si     Si        0.884585346264176    0.028660306913057    0.812627695220186  0.0000
  O3     O3        0.306496410882447    0.243899202948198    0.439965275073907  0.0000
  O3     O3        0.677119514531258    0.296440171813775    0.526941939687472  0.0000
  O2     O2        0.652896531494117    0.802886665110740    0.526289157281251  0.0000
  O2     O2        0.257010682300953    0.763291052682537    0.442418365452823  0.0000
  O2     O2        0.220827309420843    0.510489587103800    0.265497754918517  0.0000
  O2     O2        0.729694425718734    0.547087104156319    0.709023009725612  0.0000
  O3     O3        0.449365997230914    0.314938423242149    0.265895983594221  0.0000
  O3     O3        0.525528608909654    0.298202578717915    0.700136553109481  0.0000
  O2     O2        0.482296165888551    0.725614686436921    0.679412837065775  0.0000
  O2     O2        0.429087359990655    0.758593447789381    0.286617825329699  0.0000
  O2     O2        0.163324073074055    0.184729109974006    0.183061964010331  0.0000
  O2     O2        0.816713248141247    0.222827779408594    0.786682235957345  0.0000
  O2     O2        0.749598201341858    0.878873998475947    0.788800155219497  0.0000
  O2     O2        0.136287519179447    0.834445508161498    0.182208256115087  0.0000
  O3     O3        0.253591203007062    0.497636543948929    0.608084226031186  0.0000
  O3     O3        0.681372565553576    0.581334256848809    0.348646085480870  0.0000
  O1     O1        0.233207217874480    0.158978938705511    0.678971491130512  0.0000
  O1     O1        0.767374454418077    0.258625811081501    0.299818894796607  0.0000
  O3     O3        0.686994937475333    0.916665089097513    0.299091459395787  0.0000
  O3     O3        0.198582354983457    0.805832439700266    0.665290342717861  0.0000
  O1     O1        0.001137067334808    0.024783734259565    0.450621335713320  0.0000
  O3     O3        0.899825119984208    0.027237174899439    0.169012636949168  0.0000
  O3     O3        0.964917303635995    0.987714532337802    0.704342536491630  0.0000
  O2     O2        0.004556139941743    0.017287903525996    0.965619263987904  0.0000
