data_c00109.vasp
_audit_creation_method             Generated by GULP
_audit_author_name                 Salvador R. G. Balestra
_symmetry_space_group_name_H-M     'P 1             '
_symmetry_Int_Tables_number        1

loop_
_symmetry_equiv_pos_site_id
_symmetry_equiv_pos_as_xyz
_cell_length_a                        9.1857
_cell_length_b                        7.7192
_cell_length_c                       10.0843
_cell_angle_alpha                   89.0037
_cell_angle_beta                   107.5270
_cell_angle_gamma                   90.0572

loop_
_atom_site_label
_atom_site_type_symbol
_atom_site_fract_x
_atom_site_fract_y
_atom_site_fract_z
_atom_site_charge
  Ge     Ge        0.313819999999964    0.296860000000038    0.309830000000034  0.0000
  Ge     Ge        0.342910812616534    0.699787872379754    0.628491511457185  0.0000
  Ge     Ge        0.123498656010353    0.994764327543437    0.693623585484452  0.0000
  Ge     Ge        0.086069316500482    0.996243832084812    0.180543294000379  0.0000
  Si     Si        0.682245977833954    0.283773454048704    0.705163781229004  0.0000
  Si     Si        0.696382239205528    0.676723389943946    0.714493747662732  0.0000
  Si     Si        0.321875832540856    0.708406330201510    0.313431983438431  0.0000
  Si     Si        0.331279252287014    0.287598743458835    0.623365090970934  0.0000
  Si     Si        0.669518797634134    0.294720337212526    0.387389586846813  0.0000
  Si     Si        0.671463071945966    0.686936521149145    0.393604745869173  0.0000
  Si     Si        0.885085126049082    0.992059014512456    0.391072525881784  0.0000
  Si     Si        0.899121540267239    0.981369610968994    0.868857527074053  0.0000
  O3     O3        0.306252916971476    0.216201339480803    0.469358841158747  0.0000
  O2     O2        0.680051822140826    0.255404515072070    0.547503817107230  0.0000
  O2     O2        0.683967141214963    0.712811301486875    0.553989534423166  0.0000
  O3     O3        0.319379071555649    0.780000524730594    0.462177325074655  0.0000
  O3     O3        0.264752410265679    0.512345763673076    0.296196164797575  0.0000
  O2     O2        0.745083554521951    0.475729047232732    0.754463821909836  0.0000
  O3     O3        0.496404242550057    0.270085665511007    0.296278716888659  0.0000
  O2     O2        0.510242004564471    0.266942942285127    0.712256026589014  0.0000
  O3     O3        0.531737978116906    0.713929559673903    0.730182584617686  0.0000
  O2     O2        0.495454922129592    0.715640542398244    0.304185289363719  0.0000
  O1     O1        0.185669405251886    0.184592667814432    0.184106113065512  0.0000
  O2     O2        0.786577378020560    0.141167033733776    0.804657343408439  0.0000
  O2     O2        0.824111470535707    0.797908444055563    0.811428202798257  0.0000
  O3     O3        0.213897238534293    0.827208804999599    0.193969228910149  0.0000
  O3     O3        0.284043191168157    0.487216405557157    0.615325106817372  0.0000
  O2     O2        0.723091178818586    0.492286582294081    0.370083662851029  0.0000
  O3     O3        0.230961680948857    0.178430663443788    0.697958870973163  0.0000
  O2     O2        0.782192541028092    0.165865453704875    0.341568556342334  0.0000
  O2     O2        0.777814791295368    0.822914382258880    0.345172384907219  0.0000
  O1     O1        0.233488917256387    0.814197838628724    0.704934876904755  0.0000
  O3     O3        0.958666892475531    0.990680998450895    0.555946078525820  0.0000
  O3     O3        0.018304036861421    0.987304606624031    0.322611621684923  0.0000
  O3     O3        0.059103926354974    0.001921829399075    0.838212999285856  0.0000
  O3     O3        0.932773033081851    0.981279748230964    0.033523392485325  0.0000
