data_c00119.vasp
_audit_creation_method             Generated by GULP
_audit_author_name                 Salvador R. G. Balestra
_symmetry_space_group_name_H-M     'P 1             '
_symmetry_Int_Tables_number        1

loop_
_symmetry_equiv_pos_site_id
_symmetry_equiv_pos_as_xyz
_cell_length_a                        9.0271
_cell_length_b                        7.6407
_cell_length_c                       10.1649
_cell_angle_alpha                   91.2907
_cell_angle_beta                   106.5155
_cell_angle_gamma                   87.9692

loop_
_atom_site_label
_atom_site_type_symbol
_atom_site_fract_x
_atom_site_fract_y
_atom_site_fract_z
_atom_site_charge
  Ge     Ge        0.331050000000005    0.296920000000000    0.607380000000035  0.0000
  Ge     Ge        0.688936949695434    0.217593324315160    0.382941464026019  0.0000
  Ge     Ge        0.728475360772966    0.626258265405891    0.382359424790357  0.0000
  Ge     Ge        0.132160213522859    0.974811408682123    0.159595110919967  0.0000
  Si     Si        0.329491351697641    0.279782410071954    0.297533785913299  0.0000
  Si     Si        0.698796633242945    0.251701855016935    0.698065193813640  0.0000
  Si     Si        0.724424923841630    0.647889453851701    0.696597897900867  0.0000
  Si     Si        0.370852906044385    0.685330899253124    0.299197265124601  0.0000
  Si     Si        0.366590363945805    0.703985386623893    0.605874537553770  0.0000
  Si     Si        0.931385684174988    0.929356989098693    0.367159270279665  0.0000
  Si     Si        0.137593575210623    0.994532839994557    0.664905157484168  0.0000
  Si     Si        0.923454413215132    0.953873078007459    0.851243761387174  0.0000
  O3     O3        0.268676979588794    0.273948226988229    0.431187261978244  0.0000
  O3     O3        0.747940335530934    0.226798552133608    0.559983235967774  0.0000
  O3     O3        0.774605649683850    0.638827926895519    0.559297508764848  0.0000
  O2     O2        0.323968812435065    0.721269317966805    0.440705303850771  0.0000
  O2     O2        0.351516856841577    0.479218980375383    0.260138447647638  0.0000
  O2     O2        0.731462185344941    0.451410013504371    0.755583493215609  0.0000
  O3     O3        0.494695434223403    0.179228372378624    0.332675376670958  0.0000
  O3     O3        0.518600743347206    0.217913618576925    0.671667973147246  0.0000
  O2     O2        0.550051791156751    0.727144903973254    0.668208666432926  0.0000
  O3     O3        0.548000480029555    0.727390615876606    0.320356157325895  0.0000
  O3     O3        0.216581473776337    0.176631656296588    0.172037154558244  0.0000
  O2     O2        0.803955307229635    0.117710755302565    0.808250876449812  0.0000
  O2     O2        0.839257936501639    0.771336942007676    0.806163153967601  0.0000
  O3     O3        0.265297798160039    0.801922869644746    0.178677263126977  0.0000
  O3     O3        0.318967980664676    0.517560274643619    0.646088054554395  0.0000
  O1     O1        0.729149359113376    0.415844255487009    0.326496875141552  0.0000
  O3     O3        0.206492027080047    0.186175444159864    0.673935000857089  0.0000
  O3     O3        0.780623364062560    0.055876755441371    0.314749111873405  0.0000
  O3     O3        0.871168322734715    0.733614390232779    0.337254856357600  0.0000
  O2     O2        0.278368585658488    0.856867971651572    0.666853396744844  0.0000
  O2     O2        0.994652236695410    0.968074686525184    0.530885705282699  0.0000
  O3     O3        0.062326873254520    0.967740040733512    0.299806798000759  0.0000
  O2     O2        0.074500857537618    0.968099397682071    0.796320285079503  0.0000
  O3     O3        0.983201302970861    0.954232972884225    0.014237563514265  0.0000
