data_c00115.vasp
_audit_creation_method             Generated by GULP
_audit_author_name                 Salvador R. G. Balestra
_symmetry_space_group_name_H-M     'P 1             '
_symmetry_Int_Tables_number        1

loop_
_symmetry_equiv_pos_site_id
_symmetry_equiv_pos_as_xyz
_cell_length_a                        9.1246
_cell_length_b                        7.7039
_cell_length_c                       10.0205
_cell_angle_alpha                   89.2804
_cell_angle_beta                   105.8022
_cell_angle_gamma                   88.7921

loop_
_atom_site_label
_atom_site_type_symbol
_atom_site_fract_x
_atom_site_fract_y
_atom_site_fract_z
_atom_site_charge
  Ge     Ge        0.313819999999964    0.296860000000038    0.309830000000034  0.0000
  Ge     Ge        0.117085690423874    0.981192799041309    0.629428600429910  0.0000
  Ge     Ge        0.104599503411019    0.992632368983574    0.152952135959921  0.0000
  Ge     Ge        0.902410106490105    0.949287771599542    0.836471593040538  0.0000
  Si     Si        0.671662575077110    0.249038060838645    0.713011710025065  0.0000
  Si     Si        0.699276291784112    0.643624575133237    0.724396664660675  0.0000
  Si     Si        0.343171312439871    0.703690079834201    0.326606002288037  0.0000
  Si     Si        0.321948458556033    0.286554472285918    0.628131234537902  0.0000
  Si     Si        0.671390359901917    0.259250341201664    0.398557167683533  0.0000
  Si     Si        0.695281174619892    0.658012822550117    0.411935538320749  0.0000
  Si     Si        0.348394723743854    0.684649239113919    0.637753042018710  0.0000
  Si     Si        0.886051245264053    0.960001560381004    0.337610352187244  0.0000
  O3     O3        0.298000576335370    0.230531288120446    0.469953558797193  0.0000
  O2     O2        0.681231162473785    0.207740391812798    0.557520669432442  0.0000
  O2     O2        0.721502001105644    0.696846123054872    0.574091054858642  0.0000
  O2     O2        0.329962938462120    0.749598440054948    0.479872734189317  0.0000
  O3     O3        0.275731285176142    0.516832167098460    0.283035513143716  0.0000
  O2     O2        0.736816554002106    0.440073789419826    0.754395614814037  0.0000
  O3     O3        0.499832610132033    0.250606281372621    0.305360542765353  0.0000
  O2     O2        0.495963125111818    0.244370060628628    0.714527239569107  0.0000
  O2     O2        0.524922637715109    0.686277770168896    0.723990333686197  0.0000
  O2     O2        0.521104981868967    0.700661664864925    0.328327105126751  0.0000
  O1     O1        0.179196270004403    0.194620161570844    0.187055756965578  0.0000
  O3     O3        0.766982768958913    0.114916588884083    0.824920785057009  0.0000
  O3     O3        0.811635384966106    0.753311051181317    0.838601180928835  0.0000
  O3     O3        0.254854394109236    0.849349873806474    0.221543131676615  0.0000
  O2     O2        0.284962375587365    0.490641505570694    0.636670388469465  0.0000
  O2     O2        0.733171317034061    0.455212203470815    0.391799828039167  0.0000
  O3     O3        0.208257218116784    0.173332272242772    0.685480016575613  0.0000
  O2     O2        0.778004984662630    0.126396870384331    0.343279266586231  0.0000
  O2     O2        0.805094132111573    0.779101561004785    0.352908830601416  0.0000
  O3     O3        0.247137814227291    0.813190831854437    0.698917570028867  0.0000
  O3     O3        0.047500730367508    0.972349642239127    0.451119028068738  0.0000
  O3     O3        0.934535916428701    0.961921942493830    0.195570586926493  0.0000
  O1     O1        0.963053812582562    0.966429443756333    0.690328080584482  0.0000
  O1     O1        0.053809068917687    0.965005072852211    0.976820983029410  0.0000
