data_c00106.vasp
_audit_creation_method             Generated by GULP
_audit_author_name                 Salvador R. G. Balestra
_symmetry_space_group_name_H-M     'P 1             '
_symmetry_Int_Tables_number        1

loop_
_symmetry_equiv_pos_site_id
_symmetry_equiv_pos_as_xyz
_cell_length_a                        9.1597
_cell_length_b                        7.6895
_cell_length_c                       10.2736
_cell_angle_alpha                   87.2579
_cell_angle_beta                   109.1541
_cell_angle_gamma                   92.0944

loop_
_atom_site_label
_atom_site_type_symbol
_atom_site_fract_x
_atom_site_fract_y
_atom_site_fract_z
_atom_site_charge
  Ge     Ge        0.313819999999964    0.296860000000038    0.309830000000034  0.0000
  Ge     Ge        0.320931766309374    0.672431139481688    0.631938812049762  0.0000
  Ge     Ge        0.874181092715171    0.042019975504938    0.378678194480639  0.0000
  Ge     Ge        0.127213770162945    0.975826377908676    0.691340634536402  0.0000
  Si     Si        0.705242713609198    0.318441672439957    0.698466132801167  0.0000
  Si     Si        0.681096862324665    0.714380835491796    0.704659694834708  0.0000
  Si     Si        0.284093156240782    0.702841861098231    0.315619321307365  0.0000
  Si     Si        0.351215296632713    0.265843884451984    0.626806090158267  0.0000
  Si     Si        0.673774451466554    0.349047274300695    0.385424544965304  0.0000
  Si     Si        0.639862962692178    0.742447789297760    0.388911564444002  0.0000
  Si     Si        0.078371377555934    0.007915970537389    0.175728506209755  0.0000
  Si     Si        0.908469965687491    0.010409283866074    0.863867232366910  0.0000
  O3     O3        0.317318132694417    0.213194625352299    0.470026401427538  0.0000
  O2     O2        0.701782502332250    0.284559581990974    0.544417598302950  0.0000
  O2     O2        0.667774281419834    0.777818637859218    0.549230452516426  0.0000
  O3     O3        0.280520686111449    0.752904670513540    0.464070540721236  0.0000
  O3     O3        0.238343596976130    0.502996281335341    0.287860485912133  0.0000
  O2     O2        0.750992493224304    0.519649048128735    0.735570646648575  0.0000
  O3     O3        0.497304489316033    0.306608456571408    0.298262245567151  0.0000
  O2     O2        0.535125970900872    0.278825805132030    0.706935036364646  0.0000
  O3     O3        0.514432922258706    0.713100835604501    0.721953478959694  0.0000
  O2     O2        0.456933077004210    0.738628344590691    0.308416077734759  0.0000
  O3     O3        0.200637539766692    0.165429943200947    0.184036074166964  0.0000
  O2     O2        0.827676683782491    0.193163039943091    0.803971140703775  0.0000
  O2     O2        0.796229376890756    0.845607074970579    0.807521381482442  0.0000
  O2     O2        0.166241485015023    0.824777892827638    0.200292175013881  0.0000
  O3     O3        0.279378617381073    0.452159195003580    0.629313533132117  0.0000
  O2     O2        0.708782148983542    0.555468209592377    0.376839130920820  0.0000
  O3     O3        0.278691828805690    0.121062145979636    0.703581052859330  0.0000
  O3     O3        0.790590938732402    0.244928626830295    0.335508944852470  0.0000
  O3     O3        0.725792956417604    0.887575970550693    0.325378770204742  0.0000
  O1     O1        0.201308727359258    0.772437287998313    0.699235355581191  0.0000
  O1     O1        0.968180614747070    0.012674690547882    0.550522456286721  0.0000
  O3     O3        0.005298719953474    0.032212041327257    0.294658585496588  0.0000
  O3     O3        0.066076306780018    0.996257515944409    0.832082531245911  0.0000
  O2     O2        0.945491448225551    0.008389376477725    0.028216511228958  0.0000
