data_c00122.vasp
_audit_creation_method             Generated by GULP
_audit_author_name                 Salvador R. G. Balestra
_symmetry_space_group_name_H-M     'P 1             '
_symmetry_Int_Tables_number        1

loop_
_symmetry_equiv_pos_site_id
_symmetry_equiv_pos_as_xyz
_cell_length_a                        9.1147
_cell_length_b                        7.6775
_cell_length_c                       10.4459
_cell_angle_alpha                   91.4422
_cell_angle_beta                   109.3257
_cell_angle_gamma                   88.3259

loop_
_atom_site_label
_atom_site_type_symbol
_atom_site_fract_x
_atom_site_fract_y
_atom_site_fract_z
_atom_site_charge
  Ge     Ge        0.331050000000005    0.296920000000000    0.607380000000035  0.0000
  Ge     Ge        0.661375331129923    0.223656115974046    0.374266207406113  0.0000
  Ge     Ge        0.896807559305325    0.929708680806975    0.324719838800906  0.0000
  Ge     Ge        0.108700414064440    0.970659830405436    0.134638461494304  0.0000
  Si     Si        0.299000526672145    0.285138388044689    0.294872278356515  0.0000
  Si     Si        0.699465342910038    0.241982280787913    0.688213989813337  0.0000
  Si     Si        0.724316362800216    0.640808363642223    0.691062251791676  0.0000
  Si     Si        0.352113641016545    0.683281285914521    0.302551984599345  0.0000
  Si     Si        0.707846198982720    0.626730069674317    0.386932746672330  0.0000
  Si     Si        0.365211197976090    0.697722497524456    0.606053846813851  0.0000
  Si     Si        0.135391955625752    0.991340670813905    0.625680321676853  0.0000
  Si     Si        0.933391390892213    0.947893289904153    0.816359371046470  0.0000
  O3     O3        0.261287885355841    0.278092247305901    0.433490920553339  0.0000
  O3     O3        0.730840506053417    0.200490227297273    0.548386782974461  0.0000
  O2     O2        0.758938254206345    0.642999447176751    0.550252298750714  0.0000
  O2     O2        0.314806673016274    0.713645074575575    0.442876770697104  0.0000
  O2     O2        0.307443589414851    0.485054956742616    0.252373353227510  0.0000
  O2     O2        0.742425995769870    0.441653222275529    0.740970455429127  0.0000
  O3     O3        0.464762811989074    0.191563426407858    0.316278917921012  0.0000
  O3     O3        0.520091748699555    0.217832787493875    0.669086300617825  0.0000
  O2     O2        0.551098466134117    0.715032152230991    0.671103867836580  0.0000
  O2     O2        0.534055915386934    0.711001181296085    0.326815913890206  0.0000
  O3     O3        0.167806926417830    0.181474765481685    0.181662741258785  0.0000
  O2     O2        0.810121243391915    0.109589098429815    0.798265000123420  0.0000
  O2     O2        0.843715322426311    0.765073606235977    0.800013617469921  0.0000
  O3     O3        0.258192260545863    0.819126445868020    0.194099604850808  0.0000
  O3     O3        0.318963913221370    0.514073443488452    0.648527080224968  0.0000
  O3     O3        0.706625836506088    0.429191872471808    0.338020019281978  0.0000
  O3     O3        0.213279032416501    0.177830588315079    0.669857013375728  0.0000
  O1     O1        0.746158655272823    0.077160168548518    0.296205905877488  0.0000
  O3     O3        0.830899252266047    0.725377698055250    0.340295888102425  0.0000
  O2     O2        0.278296144586479    0.849689059799452    0.662500569339266  0.0000
  O3     O3        0.049249653451634    0.989514325325233    0.465260899282910  0.0000
  O1     O1        0.956718321857590    0.921385356926023    0.186027268611567  0.0000
  O2     O2        0.016156883505064    0.951336000429223    0.702509141884864  0.0000
  O3     O3        0.060598856003447    0.959051512622266    0.961025434783326  0.0000
