data_c00136.vasp
_audit_creation_method             Generated by GULP
_audit_author_name                 Salvador R. G. Balestra
_symmetry_space_group_name_H-M     'P 1             '
_symmetry_Int_Tables_number        1

loop_
_symmetry_equiv_pos_site_id
_symmetry_equiv_pos_as_xyz
_cell_length_a                        9.1878
_cell_length_b                        7.7116
_cell_length_c                       10.0572
_cell_angle_alpha                   90.7683
_cell_angle_beta                   107.5536
_cell_angle_gamma                   88.7005

loop_
_atom_site_label
_atom_site_type_symbol
_atom_site_fract_x
_atom_site_fract_y
_atom_site_fract_z
_atom_site_charge
  Ge     Ge        0.331050000000005    0.296920000000000    0.607380000000035  0.0000
  Ge     Ge        0.884042344691944    0.942503596545797    0.296418730317309  0.0000
  Ge     Ge        0.126126907946805    0.983889872323482    0.602983305375274  0.0000
  Ge     Ge        0.918293232318388    0.949575821648090    0.809353246961271  0.0000
  Si     Si        0.311255348524509    0.270984011007091    0.283309949610132  0.0000
  Si     Si        0.689713325324422    0.248587171528821    0.678381005994118  0.0000
  Si     Si        0.713840211159818    0.646115348160403    0.677512130816591  0.0000
  Si     Si        0.333282371942669    0.669459148532062    0.283900264101508  0.0000
  Si     Si        0.663202588405929    0.238932757591396    0.362218656820038  0.0000
  Si     Si        0.685969500111228    0.643041856834461    0.363071411587966  0.0000
  Si     Si        0.360412599799838    0.691183011182267    0.603658808866468  0.0000
  Si     Si        0.110732443215312    0.967015343829122    0.121601805131092  0.0000
  O3     O3        0.293629948412770    0.240559262551684    0.433103868115636  0.0000
  O2     O2        0.695888051096258    0.186690095665984    0.524531963961504  0.0000
  O2     O2        0.728893804967579    0.698619979527311    0.526257980462255  0.0000
  O2     O2        0.321568049592881    0.710262285424238    0.436713194559986  0.0000
  O2     O2        0.277283367928327    0.473470249690686    0.239553278942970  0.0000
  O2     O2        0.753238505673401    0.443400415159139    0.704639490511821  0.0000
  O2     O2        0.483312338385153    0.221337773781708    0.283510716939919  0.0000
  O3     O3        0.519751412636529    0.243607291984583    0.688203026933710  0.0000
  O2     O2        0.541069403917608    0.684690574313580    0.676626577757442  0.0000
  O2     O2        0.508080524841085    0.689326326171698    0.284484598372706  0.0000
  O2     O2        0.191649516436828    0.149469887807394    0.174622000027924  0.0000
  O3     O3        0.794574115287481    0.125368840303807    0.794797227998057  0.0000
  O3     O3        0.821250478942999    0.757253126125900    0.799713819689506  0.0000
  O2     O2        0.225061501136506    0.804291756294319    0.178414542589091  0.0000
  O3     O3        0.292541977388467    0.510960837273075    0.632461518651573  0.0000
  O2     O2        0.714161765735971    0.436659265796787    0.352095378841740  0.0000
  O1     O1        0.203108465932960    0.181962587697129    0.659334118225952  0.0000
  O3     O3        0.757397801573271    0.113404047451201    0.291725372897436  0.0000
  O3     O3        0.791851775394673    0.748118813822878    0.295066101969480  0.0000
  O3     O3        0.284340808143813    0.845803259196496    0.663300463515127  0.0000
  O1     O1        0.050530702633631    0.962463305200107    0.426156280630643  0.0000
  O3     O3        0.949306227128243    0.948854089380014    0.150974757041903  0.0000
  O1     O1        0.981823448935609    0.941203976623957    0.666925806478763  0.0000
  O3     O3        0.072130687424748    0.964190770520232    0.955375030559908  0.0000
