data_c00135.vasp
_audit_creation_method             Generated by GULP
_audit_author_name                 Salvador R. G. Balestra
_symmetry_space_group_name_H-M     'P 1             '
_symmetry_Int_Tables_number        1

loop_
_symmetry_equiv_pos_site_id
_symmetry_equiv_pos_as_xyz
_cell_length_a                        9.2084
_cell_length_b                        7.6994
_cell_length_c                       10.0714
_cell_angle_alpha                   91.1282
_cell_angle_beta                   108.0034
_cell_angle_gamma                   88.3510

loop_
_atom_site_label
_atom_site_type_symbol
_atom_site_fract_x
_atom_site_fract_y
_atom_site_fract_z
_atom_site_charge
  Ge     Ge        0.331050000000005    0.296920000000000    0.607380000000035  0.0000
  Ge     Ge        0.886802658859779    0.948375193714202    0.367514207600016  0.0000
  Ge     Ge        0.133122233447162    0.993653499976581    0.674726849359395  0.0000
  Ge     Ge        0.098617515804713    0.980338193942930    0.161899189567006  0.0000
  Si     Si        0.305576756257000    0.285778880184774    0.286419742761596  0.0000
  Si     Si        0.687929411855389    0.262210936514711    0.684560044487682  0.0000
  Si     Si        0.710834524707134    0.660356045829492    0.681544933447652  0.0000
  Si     Si        0.331751512308542    0.686593810699005    0.290476760998592  0.0000
  Si     Si        0.655462123524655    0.249857150724614    0.363552709133057  0.0000
  Si     Si        0.683342358449887    0.643463749341534    0.365054544696734  0.0000
  Si     Si        0.357950687127171    0.705064333777696    0.604938749742847  0.0000
  Si     Si        0.911638404150240    0.962455098913967    0.848076977586262  0.0000
  O3     O3        0.293933286980545    0.229599041357385    0.435623408309312  0.0000
  O2     O2        0.679161568994196    0.212989000545567    0.526181240090901  0.0000
  O2     O2        0.723039279118073    0.696045422245065    0.528812665599671  0.0000
  O2     O2        0.324197420588089    0.753977653316247    0.441946554594011  0.0000
  O2     O2        0.269421626400973    0.491137883133740    0.265863272998037  0.0000
  O2     O2        0.750357609954922    0.458257150777345    0.721470890364178  0.0000
  O2     O2        0.476302815231495    0.242312214983512    0.280134183298378  0.0000
  O3     O3        0.520863060229073    0.251230530703820    0.699300717102643  0.0000
  O2     O2        0.539620372880187    0.704023801333527    0.683331549494995  0.0000
  O2     O2        0.505669355808123    0.687805086824439    0.287524410314154  0.0000
  O3     O3        0.188195396516170    0.176746113704225    0.167528467600908  0.0000
  O2     O2        0.805189371061191    0.129628395586461    0.785453693495010  0.0000
  O2     O2        0.828693881779924    0.781971760618002    0.790993398443894  0.0000
  O3     O3        0.230334389710006    0.810428700606161    0.172806146118539  0.0000
  O3     O3        0.293527859796442    0.517176320181940    0.615184625393826  0.0000
  O2     O2        0.717659431676213    0.440089942445807    0.347609318488666  0.0000
  O1     O1        0.208532868146220    0.194483011349156    0.674233792861331  0.0000
  O3     O3        0.750382599586653    0.112196271016602    0.304883591786538  0.0000
  O3     O3        0.792408795444822    0.755613860862405    0.308628004232588  0.0000
  O3     O3        0.279615038630233    0.847146186299933    0.677650813034079  0.0000
  O1     O1        0.966937700092235    0.960592953825738    0.544035031438556  0.0000
  O1     O1        0.033699820628661    0.966439978612841    0.302129741186986  0.0000
  O3     O3        0.074169265959246    0.972864378702008    0.821691987651268  0.0000
  O3     O3        0.945317330740948    0.965423643886456    0.013500258119895  0.0000
