data_c00113.vasp
_audit_creation_method             Generated by GULP
_audit_author_name                 Salvador R. G. Balestra
_symmetry_space_group_name_H-M     'P 1             '
_symmetry_Int_Tables_number        1

loop_
_symmetry_equiv_pos_site_id
_symmetry_equiv_pos_as_xyz
_cell_length_a                        9.1652
_cell_length_b                        7.7135
_cell_length_c                       10.2432
_cell_angle_alpha                   87.8564
_cell_angle_beta                   108.2978
_cell_angle_gamma                   91.3766

loop_
_atom_site_label
_atom_site_type_symbol
_atom_site_fract_x
_atom_site_fract_y
_atom_site_fract_z
_atom_site_charge
  Ge     Ge        0.313819999999964    0.296860000000038    0.309830000000034  0.0000
  Ge     Ge        0.877163872332573    0.034675635331634    0.386475927394910  0.0000
  Ge     Ge        0.129778322745406    0.976483990208096    0.690656369446384  0.0000
  Ge     Ge        0.904122599899643    0.004466933285887    0.868452937523491  0.0000
  Si     Si        0.699267957429688    0.315879533800139    0.700229339612352  0.0000
  Si     Si        0.671117651210410    0.715414283225311    0.700991690203976  0.0000
  Si     Si        0.288824198641568    0.701076324302585    0.313400966390163  0.0000
  Si     Si        0.348661524280030    0.273236190611290    0.628962991345107  0.0000
  Si     Si        0.672272695426803    0.341190781081367    0.387745834124200  0.0000
  Si     Si        0.645621542048648    0.738139870711414    0.391647933264762  0.0000
  Si     Si        0.317235756710826    0.674664071613008    0.623410583211983  0.0000
  Si     Si        0.080739978443628    0.006978623644426    0.184140182701513  0.0000
  O3     O3        0.311357677678207    0.224378277824467    0.470992021837607  0.0000
  O2     O2        0.698301416918949    0.278817826692304    0.546244684148657  0.0000
  O2     O2        0.682697125425343    0.781531820415078    0.552695202650880  0.0000
  O2     O2        0.274306240164979    0.735748126208916    0.463474451266088  0.0000
  O3     O3        0.244558769987798    0.505456751474023    0.274365327188047  0.0000
  O2     O2        0.732424594117638    0.519012753274477    0.731555476020172  0.0000
  O3     O3        0.498298777105274    0.296703845216124    0.300889300960693  0.0000
  O2     O2        0.530750566753390    0.263149575946339    0.708950065804645  0.0000
  O2     O2        0.495280879651028    0.721269026928737    0.700313528335384  0.0000
  O2     O2        0.463261440361357    0.743787816149138    0.315836681658223  0.0000
  O3     O3        0.198711013541712    0.165902474247674    0.186849956907738  0.0000
  O3     O3        0.828555604668639    0.205685681544787    0.806859472080711  0.0000
  O3     O3        0.771282475450277    0.838937881035128    0.815065388589769  0.0000
  O2     O2        0.175398872128555    0.828058773748347    0.202307316474029  0.0000
  O2     O2        0.289397296087157    0.468373307293370    0.633594805677801  0.0000
  O2     O2        0.705252615972973    0.546571199162629    0.377831699101914  0.0000
  O3     O3        0.263172403721003    0.141390864245682    0.703378679450667  0.0000
  O3     O3        0.790214988209673    0.234844420105580    0.338267045637092  0.0000
  O3     O3        0.735357817161433    0.876647593296452    0.327186995711904  0.0000
  O3     O3        0.209600181210736    0.775812945144454    0.687832855245041  0.0000
  O1     O1        0.962997394270658    0.009862365357916    0.559532879365054  0.0000
  O3     O3        0.019401811062402    0.025315537373572    0.312990987796136  0.0000
  O1     O1        0.071049482983119    0.972912069581571    0.834216466595938  0.0000
  O3     O3        0.942590116955467    0.006977847960409    0.044961601965113  0.0000
