data_c00123.vasp
_audit_creation_method             Generated by GULP
_audit_author_name                 Salvador R. G. Balestra
_symmetry_space_group_name_H-M     'P 1             '
_symmetry_Int_Tables_number        1

loop_
_symmetry_equiv_pos_site_id
_symmetry_equiv_pos_as_xyz
_cell_length_a                        9.1632
_cell_length_b                        7.7284
_cell_length_c                       10.0646
_cell_angle_alpha                   89.1230
_cell_angle_beta                   107.8172
_cell_angle_gamma                   91.4030

loop_
_atom_site_label
_atom_site_type_symbol
_atom_site_fract_x
_atom_site_fract_y
_atom_site_fract_z
_atom_site_charge
  Ge     Ge        0.331050000000005    0.296920000000000    0.607380000000035  0.0000
  Ge     Ge        0.668984550700013    0.335962278897233    0.365167249361665  0.0000
  Ge     Ge        0.872210505116465    0.032222081729148    0.303733851895706  0.0000
  Ge     Ge        0.896123850045669    0.018263981623363    0.806593311493209  0.0000
  Si     Si        0.312885433386295    0.302618180832441    0.280184710575933  0.0000
  Si     Si        0.686537295179837    0.325427232656064    0.685815134963145  0.0000
  Si     Si        0.661308740971856    0.726636862950090    0.678806268026414  0.0000
  Si     Si        0.291826281722756    0.697900880987608    0.281956551873334  0.0000
  Si     Si        0.645662911440721    0.741941555975459    0.367338220129195  0.0000
  Si     Si        0.307195294861033    0.693527430711760    0.598198052856987  0.0000
  Si     Si        0.103942847778260    0.995256615505384    0.607308664588957  0.0000
  Si     Si        0.090009187877694    0.001696568838158    0.120927694185832  0.0000
  O3     O3        0.321810557781267    0.256525087552578    0.437731306996411  0.0000
  O3     O3        0.689995173112228    0.266852951130429    0.534065463590447  0.0000
  O2     O2        0.668888110086484    0.794926816784347    0.527887012189842  0.0000
  O2     O2        0.279101140714862    0.730329884150172    0.434628691932164  0.0000
  O2     O2        0.248574199688614    0.497563507955491    0.241239204765266  0.0000
  O2     O2        0.722298068208679    0.531134243435992    0.702637529593601  0.0000
  O3     O3        0.481105980259068    0.294056328538252    0.264872803144867  0.0000
  O3     O3        0.521000237297773    0.284520940618519    0.704167105829770  0.0000
  O2     O2        0.486232412321556    0.727474921491794    0.681340530203086  0.0000
  O2     O2        0.464847406698731    0.737869648668924    0.281577198275489  0.0000
  O2     O2        0.197182920668944    0.168771783347893    0.178980114942157  0.0000
  O3     O3        0.811848787531174    0.217069114043103    0.799627860090454  0.0000
  O3     O3        0.761527252074224    0.852559043988424    0.795867767965658  0.0000
  O2     O2        0.176125154722453    0.822505499802102    0.174079055771266  0.0000
  O3     O3        0.261362265086707    0.499165404644073    0.622617783644190  0.0000
  O3     O3        0.712844738467495    0.554296104923433    0.362563881462287  0.0000
  O3     O3        0.217728543989995    0.156538435129554    0.666889570879249  0.0000
  O1     O1        0.795139575085429    0.231927936510304    0.302542316202532  0.0000
  O3     O3        0.728187952813363    0.881990571397061    0.297197515297053  0.0000
  O2     O2        0.203836248340635    0.822132396696929    0.652488325102573  0.0000
  O3     O3        0.037350688792461    0.009760172586167    0.440626958633850  0.0000
  O3     O3        0.932178033052375    0.010117462550536    0.157851946247942  0.0000
  O3     O3        0.962349718621106    0.991209735914223    0.665727908056155  0.0000
  O3     O3        0.048405610690634    0.003512114262605    0.955026256384517  0.0000
