data_c00124.vasp
_audit_creation_method             Generated by GULP
_audit_author_name                 Salvador R. G. Balestra
_symmetry_space_group_name_H-M     'P 1             '
_symmetry_Int_Tables_number        1

loop_
_symmetry_equiv_pos_site_id
_symmetry_equiv_pos_as_xyz
_cell_length_a                        9.1164
_cell_length_b                        7.7192
_cell_length_c                       10.1838
_cell_angle_alpha                   89.1656
_cell_angle_beta                   106.5521
_cell_angle_gamma                   91.3406

loop_
_atom_site_label
_atom_site_type_symbol
_atom_site_fract_x
_atom_site_fract_y
_atom_site_fract_z
_atom_site_charge
  Ge     Ge        0.331050000000005    0.296920000000000    0.607380000000035  0.0000
  Ge     Ge        0.687934992401419    0.336883530868300    0.384338893430954  0.0000
  Ge     Ge        0.102202861882776    0.005737984820867    0.138061125583941  0.0000
  Ge     Ge        0.895836398942363    0.018125397177709    0.818467809245468  0.0000
  Si     Si        0.331622360413949    0.303155578226391    0.295338919978371  0.0000
  Si     Si        0.688609825638062    0.327128225471166    0.698894352082648  0.0000
  Si     Si        0.664001168302367    0.725136366930420    0.692871222610297  0.0000
  Si     Si        0.314003606238518    0.705026655041478    0.296944705650037  0.0000
  Si     Si        0.666313399910957    0.742059876709192    0.387368922024969  0.0000
  Si     Si        0.310212193563220    0.698947858935936    0.599822248761817  0.0000
  Si     Si        0.884149600519962    0.035029927880937    0.324924010919279  0.0000
  Si     Si        0.104658379707716    0.997404824838899    0.616970770224185  0.0000
  O3     O3        0.327626272638524    0.236778659310927    0.444346179994367  0.0000
  O3     O3        0.700450183583110    0.274166764792414    0.549962366244254  0.0000
  O2     O2        0.677952538985341    0.786841980656250    0.544281365009307  0.0000
  O2     O2        0.295843547987339    0.757627312637551    0.444027495116266  0.0000
  O2     O2        0.275140188378372    0.501513961742334    0.274287575414335  0.0000
  O2     O2        0.728363055120909    0.531371770656509    0.722843551105720  0.0000
  O3     O3        0.503332982191898    0.296936880254041    0.284258531499930  0.0000
  O3     O3        0.517709316033035    0.289483460474180    0.707808119798019  0.0000
  O2     O2        0.486237994767823    0.722670815703646    0.690703876652950  0.0000
  O2     O2        0.489184909751181    0.742407387956024    0.296811897638060  0.0000
  O3     O3        0.219845282456463    0.185457937664415    0.181803954970059  0.0000
  O3     O3        0.807834528726460    0.215764720885672    0.811221582179440  0.0000
  O3     O3        0.758320530561967    0.854240155695700    0.806609175559803  0.0000
  O3     O3        0.200171201861761    0.815185262624307    0.182061158162134  0.0000
  O3     O3        0.258632645090924    0.501991218667074    0.608193621114229  0.0000
  O3     O3        0.734563190466017    0.555417846641091    0.378072629739586  0.0000
  O3     O3        0.217048289859883    0.160014978858960    0.671544569998314  0.0000
  O3     O3        0.815721316210099    0.224327504510907    0.324885267085478  0.0000
  O2     O2        0.754143176184334    0.891217644085024    0.327328938767493  0.0000
  O2     O2        0.203595192649425    0.823066150203879    0.656382609426954  0.0000
  O2     O2        0.036324774197058    0.015124699979971    0.452033092859363  0.0000
  O3     O3        0.938140712713929    0.013608373650795    0.190371341487107  0.0000
  O3     O3        0.965737491385077    0.990785148688882    0.679773665143530  0.0000
  O1     O1        0.041853818092516    0.003478122182378    0.963009173555574  0.0000
