data_c00128.vasp
_audit_creation_method             Generated by GULP
_audit_author_name                 Salvador R. G. Balestra
_symmetry_space_group_name_H-M     'P 1             '
_symmetry_Int_Tables_number        1

loop_
_symmetry_equiv_pos_site_id
_symmetry_equiv_pos_as_xyz
_cell_length_a                        9.1430
_cell_length_b                        7.7417
_cell_length_c                       10.1552
_cell_angle_alpha                   90.3298
_cell_angle_beta                   106.3896
_cell_angle_gamma                   89.4764

loop_
_atom_site_label
_atom_site_type_symbol
_atom_site_fract_x
_atom_site_fract_y
_atom_site_fract_z
_atom_site_charge
  Ge     Ge        0.331050000000005    0.296920000000000    0.607380000000035  0.0000
  Ge     Ge        0.689957658010040    0.689493517907684    0.383911606784360  0.0000
  Ge     Ge        0.111003457454388    0.997497668204906    0.173129474077448  0.0000
  Ge     Ge        0.905871660237167    0.992279011989711    0.853861123303003  0.0000
  Si     Si        0.331629395419731    0.293474735708234    0.294883083794584  0.0000
  Si     Si        0.686943577099697    0.296483782409261    0.696895090915194  0.0000
  Si     Si        0.687697027477959    0.696871445298551    0.694664695388979  0.0000
  Si     Si        0.331686522234555    0.692854586816109    0.293196726116506  0.0000
  Si     Si        0.682439024898002    0.287604194291516    0.387570735602843  0.0000
  Si     Si        0.335331531646637    0.702878751564968    0.601625679107887  0.0000
  Si     Si        0.902798009137798    0.990648028540814    0.376183093116457  0.0000
  Si     Si        0.126144564023242    0.997546769187348    0.668141402821503  0.0000
  O3     O3        0.314913650169802    0.233162505229074    0.441288549761146  0.0000
  O2     O2        0.686245786142041    0.242472760909794    0.543053392129159  0.0000
  O3     O3        0.707236885675536    0.755713018707704    0.549861112213647  0.0000
  O2     O2        0.323742958433415    0.751854568802623    0.444539104890060  0.0000
  O2     O2        0.280857956089476    0.493377857953191    0.269425732851545  0.0000
  O2     O2        0.736235412464473    0.496489858502718    0.721349574687489  0.0000
  O2     O2        0.507960190434600    0.276784894191667    0.294295989803350  0.0000
  O3     O3        0.516894069392386    0.271521463821146    0.707870595943884  0.0000
  O2     O2        0.510714834639738    0.716335515389839    0.691796697942313  0.0000
  O3     O3        0.503577625041371    0.713760519485368    0.286102057516877  0.0000
  O3     O3        0.228747548540024    0.173853007404041    0.178405826985505  0.0000
  O3     O3        0.806352540072789    0.182056863043277    0.804704599820929  0.0000
  O3     O3        0.790708893704723    0.813758524031707    0.812518473749382  0.0000
  O3     O3        0.218670541684472    0.810170239514004    0.181627789635126  0.0000
  O3     O3        0.275736632139632    0.511601453595423    0.610029091935921  0.0000
  O3     O3        0.746179819699965    0.476830167210319    0.377949327694527  0.0000
  O3     O3        0.211333461564917    0.178018361054020    0.673574779105346  0.0000
  O2     O2        0.781683928960780    0.148270987320627    0.332580649566855  0.0000
  O3     O3        0.812354009272475    0.815015047442916    0.324935558417138  0.0000
  O2     O2        0.239885261584358    0.840437380417549    0.661678132900648  0.0000
  O2     O2        0.972828005895765    0.989656570517050    0.541500604667927  0.0000
  O3     O3        0.039886079855628    0.014586934011363    0.312830105477119  0.0000
  O3     O3        0.070383910208332    0.978688916144632    0.802759708449974  0.0000
  O1     O1        0.963418890118334    0.997207466100811    0.029242046937726  0.0000
