data_c00117.vasp
_audit_creation_method             Generated by GULP
_audit_author_name                 Salvador R. G. Balestra
_symmetry_space_group_name_H-M     'P 1             '
_symmetry_Int_Tables_number        1

loop_
_symmetry_equiv_pos_site_id
_symmetry_equiv_pos_as_xyz
_cell_length_a                        9.1146
_cell_length_b                        7.6266
_cell_length_c                       10.4257
_cell_angle_alpha                   91.9770
_cell_angle_beta                   109.5793
_cell_angle_gamma                   87.5492

loop_
_atom_site_label
_atom_site_type_symbol
_atom_site_fract_x
_atom_site_fract_y
_atom_site_fract_z
_atom_site_charge
  Ge     Ge        0.331050000000005    0.296920000000000    0.607380000000035  0.0000
  Ge     Ge        0.659616416679587    0.202801727259186    0.375007207054965  0.0000
  Ge     Ge        0.706698919800538    0.614051914667957    0.373637224540114  0.0000
  Ge     Ge        0.902003831589514    0.917106901734946    0.323395846944114  0.0000
  Si     Si        0.295700361672897    0.274894217796247    0.298141926119883  0.0000
  Si     Si        0.700457484173080    0.241810082295089    0.687289410438340  0.0000
  Si     Si        0.726659920260355    0.643046235857982    0.686600797038733  0.0000
  Si     Si        0.343458690351755    0.672537261596153    0.296053607982381  0.0000
  Si     Si        0.368251940551032    0.697553343246754    0.604448331703030  0.0000
  Si     Si        0.135515756426546    0.994468878066065    0.629867565167040  0.0000
  Si     Si        0.104777728047058    0.966445392961012    0.135806287949335  0.0000
  Si     Si        0.934954029470909    0.947600902350087    0.822419563259253  0.0000
  O3     O3        0.247901197446001    0.284218495611451    0.432071142486455  0.0000
  O3     O3        0.741191733341700    0.202709425401305    0.551159270551046  0.0000
  O3     O3        0.765010647598994    0.644339524864842    0.548751094402495  0.0000
  O2     O2        0.312887656349812    0.697307283361246    0.439968844551916  0.0000
  O2     O2        0.303261032411127    0.470948259420862    0.244539161088639  0.0000
  O2     O2        0.737722448436118    0.443951699730230    0.738078219011163  0.0000
  O3     O3        0.463103771451238    0.179264393392351    0.335491716287021  0.0000
  O3     O3        0.519997651780105    0.212578023052744    0.661455613832246  0.0000
  O2     O2        0.553176184582624    0.724459878483019    0.662328339736011  0.0000
  O3     O3        0.518999515344126    0.706852200449281    0.310279706524018  0.0000
  O2     O2        0.173631811286746    0.158479769986476    0.182622385531624  0.0000
  O2     O2        0.811135914225440    0.111087139788789    0.800639238623707  0.0000
  O2     O2        0.846409112910973    0.764510418492449    0.799635438904716  0.0000
  O2     O2        0.230299830576860    0.808614511543347    0.192734883399261  0.0000
  O3     O3        0.329095400637220    0.515297842971383    0.654945132788314  0.0000
  O1     O1        0.700946425042960    0.399774491150217    0.323404071224892  0.0000
  O3     O3        0.213187705511146    0.182035157173551    0.671294451292306  0.0000
  O1     O1        0.730571983910519    0.034780533021563    0.301889138462775  0.0000
  O1     O1        0.846812386179128    0.706069625401347    0.326084236729155  0.0000
  O2     O2        0.280158526383454    0.853580583160702    0.657786537019484  0.0000
  O3     O3        0.037959741132561    0.991442334723668    0.470841481661082  0.0000
  O3     O3        0.959153372111672    0.942179286565611    0.184548137375101  0.0000
  O2     O2        0.030798045134345    0.951499939665956    0.718963434031432  0.0000
  O2     O2        0.054863508091654    0.956254776090395    0.973686633390955  0.0000
