data_c00107.vasp
_audit_creation_method             Generated by GULP
_audit_author_name                 Salvador R. G. Balestra
_symmetry_space_group_name_H-M     'P 1             '
_symmetry_Int_Tables_number        1

loop_
_symmetry_equiv_pos_site_id
_symmetry_equiv_pos_as_xyz
_cell_length_a                        9.1559
_cell_length_b                        7.7025
_cell_length_c                       10.3675
_cell_angle_alpha                   89.5944
_cell_angle_beta                   108.7218
_cell_angle_gamma                   88.9403

loop_
_atom_site_label
_atom_site_type_symbol
_atom_site_fract_x
_atom_site_fract_y
_atom_site_fract_z
_atom_site_charge
  Ge     Ge        0.313819999999964    0.296860000000038    0.309830000000034  0.0000
  Ge     Ge        0.367357121634695    0.682631937755252    0.636732935705000  0.0000
  Ge     Ge        0.900120330290206    0.945896504647784    0.350016125897166  0.0000
  Ge     Ge        0.106284691369632    0.985812334677936    0.153038192130280  0.0000
  Si     Si        0.698768516140390    0.242425290633658    0.706018351759217  0.0000
  Si     Si        0.731675135377137    0.640932182925099    0.715577870313844  0.0000
  Si     Si        0.349622477311669    0.698415272268591    0.323595786529377  0.0000
  Si     Si        0.342014348291299    0.284302568331416    0.629735443881579  0.0000
  Si     Si        0.672504733123812    0.241875848348431    0.396846417840632  0.0000
  Si     Si        0.705328102922552    0.642259427076692    0.409855097952513  0.0000
  Si     Si        0.141633992061252    0.979000247758296    0.648241169678263  0.0000
  Si     Si        0.932259606343780    0.949191044179163    0.835235375329194  0.0000
  O3     O3        0.288874816811060    0.282386945941635    0.467209293532810  0.0000
  O2     O2        0.719544168555434    0.209490623131330    0.559621311183254  0.0000
  O2     O2        0.765027460621416    0.661802344493026    0.573103584164508  0.0000
  O3     O3        0.308664870673830    0.711836724903680    0.462870475878742  0.0000
  O3     O3        0.301530607238120    0.511663528960327    0.258916094541408  0.0000
  O2     O2        0.749937677308361    0.436873838319450    0.759128485084712  0.0000
  O3     O3        0.493669585919041    0.208298523822334    0.324500015930502  0.0000
  O2     O2        0.520399405941158    0.217637032327789    0.691372957723028  0.0000
  O3     O3        0.562965475077856    0.711233976428140    0.704024064807654  0.0000
  O2     O2        0.532643285374351    0.721391210663108    0.355507414605570  0.0000
  O1     O1        0.168915422836040    0.192539206267246    0.194730996242995  0.0000
  O2     O2        0.801288584741271    0.101671620688597    0.814028294859584  0.0000
  O2     O2        0.854883971463922    0.759456705439944    0.823662647869738  0.0000
  O3     O3        0.264207762090111    0.850142077256592    0.222851385686083  0.0000
  O3     O3        0.326678973508698    0.476351205470851    0.679721660149510  0.0000
  O2     O2        0.706416356492499    0.441572408728898    0.368879824850281  0.0000
  O2     O2        0.235024307307502    0.158066712199710    0.682776475981590  0.0000
  O3     O3        0.772878679776592    0.117329192309872    0.336398910076219  0.0000
  O3     O3        0.816066364807008    0.747074302591839    0.350181391814892  0.0000
  O3     O3        0.264602949270625    0.823186932855477    0.703796355715270  0.0000
  O3     O3        0.065066551578059    0.965086960510712    0.486405264069671  0.0000
  O1     O1        0.953164844516828    0.942900900057908    0.206300042253035  0.0000
  O2     O2        0.009843560338755    0.976004331272142    0.717954810115373  0.0000
  O3     O3        0.058044816256397    0.963195804337694    0.979268976267266  0.0000
