data_c00125.vasp
_audit_creation_method             Generated by GULP
_audit_author_name                 Salvador R. G. Balestra
_symmetry_space_group_name_H-M     'P 1             '
_symmetry_Int_Tables_number        1

loop_
_symmetry_equiv_pos_site_id
_symmetry_equiv_pos_as_xyz
_cell_length_a                        9.1741
_cell_length_b                        7.6124
_cell_length_c                       10.6724
_cell_angle_alpha                   92.6430
_cell_angle_beta                   110.8205
_cell_angle_gamma                   87.0582

loop_
_atom_site_label
_atom_site_type_symbol
_atom_site_fract_x
_atom_site_fract_y
_atom_site_fract_z
_atom_site_charge
  Ge     Ge        0.331050000000005    0.296920000000000    0.607380000000035  0.0000
  Ge     Ge        0.687378795655291    0.599167018126077    0.365776544477892  0.0000
  Ge     Ge        0.878770592311928    0.907638717092216    0.329836110634967  0.0000
  Ge     Ge        0.139661029025224    0.988449566880753    0.643331690998823  0.0000
  Si     Si        0.286974659433087    0.263615147623043    0.299263161196531  0.0000
  Si     Si        0.694523300965268    0.233954683472251    0.678239551862455  0.0000
  Si     Si        0.731455145389352    0.632475663440495    0.673895336645221  0.0000
  Si     Si        0.323906947651492    0.662135773094368    0.294920056189345  0.0000
  Si     Si        0.644091311058011    0.197085625790004    0.372109177487436  0.0000
  Si     Si        0.374339633877800    0.699004050980284    0.601051123877450  0.0000
  Si     Si        0.082832981078933    0.958260985441903    0.145195197016529  0.0000
  Si     Si        0.935597642325845    0.937830060226918    0.827967943711156  0.0000
  O3     O3        0.281240545598213    0.221185443288583    0.442160464371871  0.0000
  O2     O2        0.679518301413450    0.164455936769064    0.529238748715207  0.0000
  O3     O3        0.737183682806366    0.674902234163308    0.530995541733687  0.0000
  O2     O2        0.338913698249987    0.731637599380739    0.443921423177337  0.0000
  O2     O2        0.247370779833087    0.470235296086729    0.268724400808694  0.0000
  O2     O2        0.771058035470727    0.425855802337225    0.704436956815403  0.0000
  O2     O2        0.458929141307174    0.219637805076987    0.295842486342297  0.0000
  O3     O3        0.527244074766029    0.246187978924691    0.692495894804863  0.0000
  O2     O2        0.559502446182718    0.676456686138309    0.677320833796913  0.0000
  O3     O3        0.491184469783316    0.649899268052014    0.280660145936714  0.0000
  O2     O2        0.163605717042884    0.145642816146910    0.186968417734599  0.0000
  O2     O2        0.810069293396098    0.099339384942840    0.781201544229166  0.0000
  O2     O2        0.854829847584249    0.750446949849997    0.786185692112667  0.0000
  O2     O2        0.208360590142852    0.796750127641653    0.191956853677341  0.0000
  O3     O3        0.295407352585301    0.520597515515212    0.613870325444257  0.0000
  O3     O3        0.723024061896435    0.375490221356902    0.359286704373825  0.0000
  O1     O1        0.207717660808231    0.197810488941474    0.666314875914082  0.0000
  O3     O3        0.709956227799398    0.036516840024889    0.307536296832073  0.0000
  O1     O1        0.810711730507611    0.698278265519245    0.306843141707927  0.0000
  O3     O3        0.308473166208304    0.859570761716772    0.665625297039558  0.0000
  O1     O1        0.009210053173721    0.948038709711844    0.486587576554968  0.0000
  O3     O3        0.948266613079104    0.946999555498897    0.205552667941116  0.0000
  O3     O3        0.070175355546800    0.949101181549867    0.767624762276274  0.0000
  O2     O2        0.009205833385640    0.948042294680692    0.986582088309177  0.0000
