data_c00104.vasp
_audit_creation_method             Generated by GULP
_audit_author_name                 Salvador R. G. Balestra
_symmetry_space_group_name_H-M     'P 1             '
_symmetry_Int_Tables_number        1

loop_
_symmetry_equiv_pos_site_id
_symmetry_equiv_pos_as_xyz
_cell_length_a                        9.0836
_cell_length_b                        7.7272
_cell_length_c                       10.2787
_cell_angle_alpha                   87.6011
_cell_angle_beta                   108.1106
_cell_angle_gamma                   91.4440

loop_
_atom_site_label
_atom_site_type_symbol
_atom_site_fract_x
_atom_site_fract_y
_atom_site_fract_z
_atom_site_charge
  Ge     Ge        0.313819999999964    0.296860000000038    0.309830000000034  0.0000
  Ge     Ge        0.647635997355479    0.745948474979274    0.392567841588181  0.0000
  Ge     Ge        0.115629752030405    0.974387278140094    0.677744984278295  0.0000
  Ge     Ge        0.893864996932883    0.006744276948289    0.864999644141494  0.0000
  Si     Si        0.690808500775730    0.322661413843050    0.701120482913287  0.0000
  Si     Si        0.661178768996175    0.719582792031307    0.705541640260461  0.0000
  Si     Si        0.282679740591643    0.699819376178404    0.308037628857606  0.0000
  Si     Si        0.340480452759291    0.271929752099933    0.625364043678323  0.0000
  Si     Si        0.673985667983819    0.346320492547798    0.389788039095682  0.0000
  Si     Si        0.306099902557279    0.671348108428790    0.617479966438085  0.0000
  Si     Si        0.876341362454473    0.042778564693784    0.378117369906890  0.0000
  Si     Si        0.076682741049657    0.010468590765661    0.181268981883594  0.0000
  O3     O3        0.314839339291357    0.220035054268408    0.470413733449562  0.0000
  O2     O2        0.680208421082532    0.293499210493920    0.544880625371088  0.0000
  O3     O3        0.675534751105653    0.792644930797934    0.561279656401827  0.0000
  O2     O2        0.280958998326250    0.736524248315495    0.461265734513461  0.0000
  O3     O3        0.238166408809108    0.502648498876473    0.273899932937067  0.0000
  O2     O2        0.727607455344756    0.524655454838574    0.733458680622137  0.0000
  O3     O3        0.499253861591090    0.308696378602532    0.297455768657984  0.0000
  O2     O2        0.522180262027162    0.268841912686005    0.713842887483708  0.0000
  O2     O2        0.483062594148199    0.715571956254203    0.703889514591121  0.0000
  O3     O3        0.453558536272734    0.745511483522303    0.301261467841365  0.0000
  O3     O3        0.206017107707526    0.158532345061097    0.189073218798697  0.0000
  O3     O3        0.822785175687031    0.209113406741187    0.801688149455153  0.0000
  O3     O3        0.756436231222634    0.843546087425130    0.821813538925188  0.0000
  O2     O2        0.158296867708791    0.823406662108898    0.202148875945847  0.0000
  O2     O2        0.274564359880138    0.465404240227904    0.623116736259215  0.0000
  O3     O3        0.720136801082289    0.545250939115887    0.378743862434126  0.0000
  O3     O3        0.251848616879349    0.137917353213224    0.696378053527483  0.0000
  O2     O2        0.795151149631975    0.230323792943830    0.347602727191057  0.0000
  O3     O3        0.745666674145286    0.896893873890504    0.322648302937826  0.0000
  O3     O3        0.191399337695098    0.771677498748720    0.674997332821230  0.0000
  O3     O3        0.953544487626828    0.007908096505073    0.539404331855683  0.0000
  O2     O2        0.007927838305347    0.044177091214491    0.305130939460364  0.0000
  O1     O1        0.053748258352801    0.967219716898785    0.818867223269463  0.0000
  O3     O3        0.942169861042294    0.017613923036088    0.040481751819127  0.0000
