data_c00126.vasp
_audit_creation_method             Generated by GULP
_audit_author_name                 Salvador R. G. Balestra
_symmetry_space_group_name_H-M     'P 1             '
_symmetry_Int_Tables_number        1

loop_
_symmetry_equiv_pos_site_id
_symmetry_equiv_pos_as_xyz
_cell_length_a                        9.1189
_cell_length_b                        7.6738
_cell_length_c                       10.2942
_cell_angle_alpha                   91.8374
_cell_angle_beta                   108.3466
_cell_angle_gamma                   87.4793

loop_
_atom_site_label
_atom_site_type_symbol
_atom_site_fract_x
_atom_site_fract_y
_atom_site_fract_z
_atom_site_charge
  Ge     Ge        0.331050000000005    0.296920000000000    0.607380000000035  0.0000
  Ge     Ge        0.705033105342111    0.617509992521711    0.375656525700068  0.0000
  Ge     Ge        0.892902339353889    0.928732504349709    0.322747325478453  0.0000
  Ge     Ge        0.104108787628086    0.976699482909562    0.130196044231985  0.0000
  Si     Si        0.306345913754387    0.281417669405113    0.293631115030430  0.0000
  Si     Si        0.690301093878437    0.254547532764421    0.693470933864265  0.0000
  Si     Si        0.718182279419576    0.650883275304994    0.689531614359045  0.0000
  Si     Si        0.344827439244781    0.678565919831367    0.295682223959350  0.0000
  Si     Si        0.659778198396072    0.220245082625151    0.378456393223896  0.0000
  Si     Si        0.363456149599013    0.700481777400194    0.604120421908813  0.0000
  Si     Si        0.131835215933565    0.994782012473184    0.620238883954917  0.0000
  Si     Si        0.926400632103675    0.954834085194714    0.811606449509025  0.0000
  O3     O3        0.298533093276442    0.227839214815065    0.440303797902665  0.0000
  O2     O2        0.675044802581954    0.199387898139267    0.537716041450373  0.0000
  O3     O3        0.731483346947397    0.686708799680432    0.542460556605745  0.0000
  O2     O2        0.350422248740894    0.742845623556482    0.448293030805520  0.0000
  O2     O2        0.270746881988773    0.487905402717614    0.271466452904552  0.0000
  O2     O2        0.759784348627947    0.447867179748857    0.727763330108652  0.0000
  O2     O2        0.479856858560142    0.237275399591808    0.289580715983974  0.0000
  O3     O3        0.520584253484616    0.255773633348772    0.707132425445079  0.0000
  O2     O2        0.544093202046247    0.694260264820050    0.692950227285654  0.0000
  O3     O3        0.514917383004949    0.667465602567575    0.282505675751704  0.0000
  O3     O3        0.183528991074467    0.178034658217193    0.176592663672946  0.0000
  O2     O2        0.805023038164105    0.119410549251362    0.796349376738664  0.0000
  O2     O2        0.835334713111061    0.775420495507650    0.799442033430537  0.0000
  O3     O3        0.238858201100715    0.809909732704761    0.188092635082694  0.0000
  O3     O3        0.289782548507306    0.517794714757160    0.613666343356419  0.0000
  O3     O3        0.742762520203426    0.395521182980466    0.364711561952103  0.0000
  O3     O3        0.204373915849053    0.182423560521233    0.663706162215289  0.0000
  O3     O3        0.731046868570970    0.054280048159371    0.322504406933955  0.0000
  O1     O1        0.836408888872987    0.718312843975872    0.321027750658826  0.0000
  O2     O2        0.274579111183223    0.852026662022287    0.663685803788901  0.0000
  O3     O3        0.051807943474386    0.980808039521953    0.457987368177304  0.0000
  O1     O1        0.943706499853051    0.957848234603163    0.178943019556101  0.0000
  O2     O2        0.004400542243424    0.958247007497161    0.691585087330305  0.0000
  O3     O3        0.056159636651439    0.965042894160092    0.954408997147995  0.0000
