data_c00127.vasp
_audit_creation_method             Generated by GULP
_audit_author_name                 Salvador R. G. Balestra
_symmetry_space_group_name_H-M     'P 1             '
_symmetry_Int_Tables_number        1

loop_
_symmetry_equiv_pos_site_id
_symmetry_equiv_pos_as_xyz
_cell_length_a                        9.1793
_cell_length_b                        7.6814
_cell_length_c                       10.1233
_cell_angle_alpha                   89.2441
_cell_angle_beta                   109.0806
_cell_angle_gamma                   87.7483

loop_
_atom_site_label
_atom_site_type_symbol
_atom_site_fract_x
_atom_site_fract_y
_atom_site_fract_z
_atom_site_charge
  Ge     Ge        0.331050000000005    0.296920000000000    0.607380000000035  0.0000
  Ge     Ge        0.686447335657274    0.661591378311600    0.372176818805412  0.0000
  Ge     Ge        0.879814066189252    0.968195397264621    0.304534681153238  0.0000
  Ge     Ge        0.938265653843226    0.944349466478550    0.818674608642110  0.0000
  Si     Si        0.295824405258291    0.301377897691865    0.283852746149571  0.0000
  Si     Si        0.695969150389434    0.248297439991146    0.681040447454413  0.0000
  Si     Si        0.717148253199880    0.655839099095492    0.692109614816492  0.0000
  Si     Si        0.334780842026389    0.683622740786107    0.291940238456470  0.0000
  Si     Si        0.658076895326040    0.251886008940656    0.368407498981430  0.0000
  Si     Si        0.372555361362454    0.684605791295651    0.614640685406944  0.0000
  Si     Si        0.131565797649845    0.992396959476041    0.608598099638022  0.0000
  Si     Si        0.104581700733015    0.995134136964413    0.136623048257066  0.0000
  O3     O3        0.266649165187609    0.270884232493080    0.428706051847962  0.0000
  O2     O2        0.707428004158326    0.187449713546328    0.531485740819003  0.0000
  O3     O3        0.723625510057155    0.724565058222116    0.543065195966288  0.0000
  O2     O2        0.379263032757565    0.650140879824970    0.459055932799208  0.0000
  O2     O2        0.259264164644331    0.502891400205261    0.225780284215772  0.0000
  O2     O2        0.746151595561403    0.447542174841067    0.704219857707295  0.0000
  O2     O2        0.473657096762293    0.255849757714157    0.302172690160833  0.0000
  O3     O3        0.523272492559310    0.233125930808021    0.681811696934302  0.0000
  O2     O2        0.550309785883804    0.706021750469489    0.708996555870764  0.0000
  O3     O3        0.495921150998071    0.715441748573077    0.269533296828031  0.0000
  O2     O2        0.184953155790706    0.179666729344090    0.169744122892671  0.0000
  O3     O3        0.813489117367689    0.124743005201982    0.798003190691727  0.0000
  O3     O3        0.841704873064812    0.753876581427334    0.811627896681659  0.0000
  O2     O2        0.212657612881265    0.842851136948929    0.237755709380296  0.0000
  O3     O3        0.306718326037674    0.509089134909074    0.655314103854298  0.0000
  O3     O3        0.721507897312432    0.441062419094525    0.360817727943493  0.0000
  O3     O3        0.211705840083353    0.170832706695983    0.665837391191197  0.0000
  O3     O3        0.726142649218603    0.114576664233183    0.286433352257452  0.0000
  O1     O1        0.812352188016245    0.765038151287743    0.309180408390337  0.0000
  O2     O2        0.273902400066951    0.852997504240308    0.627040427573616  0.0000
  O3     O3        0.035454214461452    0.013296850259247    0.446406127276982  0.0000
  O3     O3        0.940938090799528    0.995864393385180    0.161113100951446  0.0000
  O3     O3        0.024881389925825    0.928862112618734    0.692511765169193  0.0000
  O3     O3        0.081406774684862    0.954183405927307    0.977523732290280  0.0000
