data_c00114.vasp
_audit_creation_method             Generated by GULP
_audit_author_name                 Salvador R. G. Balestra
_symmetry_space_group_name_H-M     'P 1             '
_symmetry_Int_Tables_number        1

loop_
_symmetry_equiv_pos_site_id
_symmetry_equiv_pos_as_xyz
_cell_length_a                        9.1128
_cell_length_b                        7.7235
_cell_length_c                       10.0597
_cell_angle_alpha                   89.1944
_cell_angle_beta                   105.7081
_cell_angle_gamma                   89.2433

loop_
_atom_site_label
_atom_site_type_symbol
_atom_site_fract_x
_atom_site_fract_y
_atom_site_fract_z
_atom_site_charge
  Ge     Ge        0.313819999999964    0.296860000000038    0.309830000000034  0.0000
  Ge     Ge        0.902933580095441    0.966279823102065    0.408874914439994  0.0000
  Ge     Ge        0.105128599383891    0.988037193153772    0.189700298706271  0.0000
  Ge     Ge        0.902898415475560    0.955494317354798    0.875941269032154  0.0000
  Si     Si        0.675548290467612    0.255973322136161    0.710175606321809  0.0000
  Si     Si        0.693250221966832    0.657557646015833    0.717850453791152  0.0000
  Si     Si        0.337351342579771    0.696700037750696    0.321902405134327  0.0000
  Si     Si        0.324715224209594    0.281358177565879    0.630259842759533  0.0000
  Si     Si        0.672787388005544    0.265160438563874    0.400163667451144  0.0000
  Si     Si        0.691019956687604    0.661857434635771    0.410147389715630  0.0000
  Si     Si        0.341772560605512    0.682393501065104    0.634856603829319  0.0000
  Si     Si        0.133795703823922    0.979294069403979    0.703088166381553  0.0000
  O3     O3        0.294074523418234    0.237750900442689    0.471241551612688  0.0000
  O2     O2        0.685291720613805    0.203695910285021    0.558106626147125  0.0000
  O2     O2        0.714724019461261    0.716283152098642    0.569758509821058  0.0000
  O2     O2        0.319419270478503    0.734229948219856    0.475288082817969  0.0000
  O3     O3        0.267258554905836    0.511647591450303    0.276428597947977  0.0000
  O2     O2        0.728819257874306    0.453022363613818    0.742895788808335  0.0000
  O3     O3        0.500507031521006    0.254696591411264    0.309437966948451  0.0000
  O2     O2        0.499993781336042    0.240631948276043    0.713215898653290  0.0000
  O2     O2        0.518688772600131    0.698121721143094    0.719222799131374  0.0000
  O2     O2        0.515583432231380    0.693618810878970    0.326999025418099  0.0000
  O1     O1        0.189951352787545    0.184625098707386    0.186206095001226  0.0000
  O3     O3        0.781871129280682    0.130865953051777    0.821837543563602  0.0000
  O3     O3        0.809342744877875    0.763109678822631    0.832545227877603  0.0000
  O3     O3        0.253337299374047    0.836793815575134    0.211210465219871  0.0000
  O2     O2        0.286523379749321    0.485207988174661    0.646663266224789  0.0000
  O2     O2        0.733134315475824    0.460836131975049    0.399773508607928  0.0000
  O2     O2        0.217956294198145    0.160530213309063    0.695261651134827  0.0000
  O3     O3        0.781254151517507    0.140668112968129    0.344720929654509  0.0000
  O3     O3        0.801071464106077    0.779904360155008    0.353171049227568  0.0000
  O2     O2        0.242254012993081    0.813729223702807    0.698238544886279  0.0000
  O3     O3        0.974731838478404    0.971235460302058    0.586053009459526  0.0000
  O1     O1        0.050990914924729    0.971965311322956    0.339861081093539  0.0000
  O3     O3        0.078974428906960    0.970610386437824    0.841440493222796  0.0000
  O1     O1        0.952995267071714    0.957126122095158    0.053127153973066  0.0000
