data_c00120.vasp
_audit_creation_method             Generated by GULP
_audit_author_name                 Salvador R. G. Balestra
_symmetry_space_group_name_H-M     'P 1             '
_symmetry_Int_Tables_number        1

loop_
_symmetry_equiv_pos_site_id
_symmetry_equiv_pos_as_xyz
_cell_length_a                        9.1182
_cell_length_b                        7.6489
_cell_length_c                       10.3489
_cell_angle_alpha                   88.7762
_cell_angle_beta                   108.1522
_cell_angle_gamma                   91.4980

loop_
_atom_site_label
_atom_site_type_symbol
_atom_site_fract_x
_atom_site_fract_y
_atom_site_fract_z
_atom_site_charge
  Ge     Ge        0.331050000000005    0.296920000000000    0.607380000000035  0.0000
  Ge     Ge        0.677294346322574    0.366316046496228    0.374612501611245  0.0000
  Ge     Ge        0.642204536437001    0.778083016551344    0.378185242909450  0.0000
  Ge     Ge        0.889934558155433    0.037980217924176    0.843589175047041  0.0000
  Si     Si        0.316164014241228    0.307557462475734    0.292782053956096  0.0000
  Si     Si        0.690446093532203    0.351084105036227    0.690004287397438  0.0000
  Si     Si        0.650095990219292    0.753671729918278    0.685749632516436  0.0000
  Si     Si        0.280729229575901    0.709176424932677    0.291098357137071  0.0000
  Si     Si        0.293314042956366    0.701196414717769    0.595063683277269  0.0000
  Si     Si        0.880665789638516    0.065452863602484    0.355980785522317  0.0000
  Si     Si        0.101276157728085    0.001743858504082    0.653859175786932  0.0000
  Si     Si        0.081578694992766    0.018012433999194    0.161481042091445  0.0000
  O3     O3        0.280635121449591    0.273582513669568    0.433762154043839  0.0000
  O3     O3        0.725511875668202    0.347476799927578    0.548561032750005  0.0000
  O3     O3        0.701551690442008    0.794819047978098    0.553203452009146  0.0000
  O2     O2        0.237945138212114    0.703359475539399    0.431013807744015  0.0000
  O2     O2        0.280275241190836    0.509917669037062    0.241917564773042  0.0000
  O2     O2        0.685280918348934    0.552277357596967    0.732865093554083  0.0000
  O3     O3        0.493291896634013    0.275653031423006    0.309226448926517  0.0000
  O3     O3        0.525264806264234    0.260146759721386    0.675595191537361  0.0000
  O2     O2        0.466645430950411    0.783028146055255    0.649072742569140  0.0000
  O3     O3        0.445706370172753    0.801497436814857    0.316569886201784  0.0000
  O2     O2        0.209216850087720    0.175148506784865    0.181419040597641  0.0000
  O3     O3        0.822050390961276    0.245903873983261    0.799377570872207  0.0000
  O3     O3        0.742390585029497    0.882900655209118    0.801982404606778  0.0000
  O2     O2        0.159539417207269    0.827208386868543    0.178366677950150  0.0000
  O3     O3        0.288744797076550    0.504864972439187    0.646985070989242  0.0000
  O1     O1        0.685172319516263    0.579035290126240    0.328496109121906  0.0000
  O3     O3        0.229416399454509    0.154642132864472    0.677942348872953  0.0000
  O3     O3        0.813943230481746    0.258519172866261    0.325340489867429  0.0000
  O3     O3        0.732851594872673    0.936295132990016    0.310168332874098  0.0000
  O2     O2        0.178291125918068    0.816883730458413    0.644811814784908  0.0000
  O2     O2        0.960687143511393    0.038788304881560    0.517682514073479  0.0000
  O2     O2        0.001769979527272    0.031837359749389    0.278570548770319  0.0000
  O3     O3        0.037353995419893    0.989676648317094    0.780476281578292  0.0000
  O3     O3        0.956498962715361    0.034303056827547    0.017931624282951  0.0000
