data_c00134.vasp
_audit_creation_method             Generated by GULP
_audit_author_name                 Salvador R. G. Balestra
_symmetry_space_group_name_H-M     'P 1             '
_symmetry_Int_Tables_number        1

loop_
_symmetry_equiv_pos_site_id
_symmetry_equiv_pos_as_xyz
_cell_length_a                        9.0406
_cell_length_b                        7.6571
_cell_length_c                       10.1942
_cell_angle_alpha                   91.5555
_cell_angle_beta                   106.7128
_cell_angle_gamma                   87.8541

loop_
_atom_site_label
_atom_site_type_symbol
_atom_site_fract_x
_atom_site_fract_y
_atom_site_fract_z
_atom_site_charge
  Ge     Ge        0.331050000000005    0.296920000000000    0.607380000000035  0.0000
  Ge     Ge        0.383448110507771    0.710226908885035    0.614155147696119  0.0000
  Ge     Ge        0.133057067439307    0.961657450566793    0.179890469675120  0.0000
  Ge     Ge        0.933835406908982    0.943893602564927    0.860040688497937  0.0000
  Si     Si        0.342077205861914    0.268557338471602    0.301976676276563  0.0000
  Si     Si        0.693238529801901    0.238009570786652    0.700588674043098  0.0000
  Si     Si        0.737699714715362    0.631562192089701    0.707037818035354  0.0000
  Si     Si        0.374927305533736    0.673388471112194    0.301960407263543  0.0000
  Si     Si        0.695734378862947    0.224252626323115    0.392166878504878  0.0000
  Si     Si        0.724073239767447    0.618691936715923    0.393536971854520  0.0000
  Si     Si        0.927834052046265    0.923340293730550    0.388111395850253  0.0000
  Si     Si        0.150562888813025    0.998239124295658    0.677490856863011  0.0000
  O3     O3        0.317445721363597    0.215538794659077    0.444795542024461  0.0000
  O2     O2        0.701836066040685    0.186465653967499    0.547914329158575  0.0000
  O2     O2        0.726145178817205    0.663523672938767    0.548318251021077  0.0000
  O3     O3        0.370848925098038    0.758312621909222    0.446823666774174  0.0000
  O2     O2        0.311321352996741    0.476890278796809    0.287035342292967  0.0000
  O2     O2        0.769431602275196    0.426780789076293    0.742008615288481  0.0000
  O2     O2        0.518176130722234    0.219638678529229    0.300272206423554  0.0000
  O3     O3        0.518562791242757    0.250480013805280    0.705286917810351  0.0000
  O3     O3        0.571029250441048    0.693459723544433    0.719260434310273  0.0000
  O2     O2        0.552366132239232    0.663318888977300    0.295771370281365  0.0000
  O3     O3        0.224197636541291    0.158840468485358    0.185766109893300  0.0000
  O3     O3        0.784549521862719    0.093798186359858    0.803457607509032  0.0000
  O3     O3        0.873891557484655    0.735523817696156    0.807030222459349  0.0000
  O3     O3        0.268583283269865    0.792446876282840    0.184449577195348  0.0000
  O1     O1        0.294580648866344    0.516365504067455    0.614036329779248  0.0000
  O2     O2        0.765581565600175    0.412997958358686    0.378282381591664  0.0000
  O3     O3        0.193353169832906    0.196425977005569    0.662680322630256  0.0000
  O2     O2        0.797272247261599    0.077472497148570    0.339118506326327  0.0000
  O2     O2        0.847129685290157    0.735364144819131    0.351512013284057  0.0000
  O3     O3        0.301884946241071    0.879074468487130    0.685830785987380  0.0000
  O2     O2        0.005690217157737    0.936209618858095    0.551788455460401  0.0000
  O3     O3        0.059953108770978    0.936760220698234    0.317109969256574  0.0000
  O3     O3        0.097432409279372    0.985793985158347    0.813226312573320  0.0000
  O1     O1        0.984585646819324    0.950507478935919    0.034721983239105  0.0000
