data_c00102.vasp
_audit_creation_method             Generated by GULP
_audit_author_name                 Salvador R. G. Balestra
_symmetry_space_group_name_H-M     'P 1             '
_symmetry_Int_Tables_number        1

loop_
_symmetry_equiv_pos_site_id
_symmetry_equiv_pos_as_xyz
_cell_length_a                        9.1858
_cell_length_b                        7.7128
_cell_length_c                       10.0457
_cell_angle_alpha                   87.5612
_cell_angle_beta                   107.5918
_cell_angle_gamma                   90.1841

loop_
_atom_site_label
_atom_site_type_symbol
_atom_site_fract_x
_atom_site_fract_y
_atom_site_fract_z
_atom_site_charge
  Ge     Ge        0.313819999999964    0.296860000000038    0.309830000000034  0.0000
  Ge     Ge        0.646705513151533    0.732238987412464    0.406146760369432  0.0000
  Ge     Ge        0.877180971841357    0.026114735557534    0.339978023978398  0.0000
  Ge     Ge        0.902482890848086    0.974546415647809    0.841476917606153  0.0000
  Si     Si        0.682708276211079    0.285041061156754    0.712396136559771  0.0000
  Si     Si        0.669868529150506    0.689786186025435    0.725164219141811  0.0000
  Si     Si        0.298104883388965    0.694961096500576    0.317273093146788  0.0000
  Si     Si        0.329410721670650    0.269028782613583    0.635031548525873  0.0000
  Si     Si        0.674143549331301    0.318628885651414    0.403319356490350  0.0000
  Si     Si        0.326324122418718    0.658110427428223    0.642885399494674  0.0000
  Si     Si        0.115645826914735    0.969450627679330    0.639752084384839  0.0000
  Si     Si        0.089587263178546    0.004245953490463    0.155779706123306  0.0000
  O3     O3        0.290863605835109    0.245021767613986    0.470633421645634  0.0000
  O2     O2        0.698235600972053    0.239924042303475    0.561605900704979  0.0000
  O3     O3        0.675420334744896    0.780038450779646    0.578571404405089  0.0000
  O2     O2        0.330457413150362    0.672962788890535    0.484588091330757  0.0000
  O3     O3        0.253922544984182    0.508145492788228    0.255887655598955  0.0000
  O2     O2        0.719461365015887    0.487701587720323    0.737474338381890  0.0000
  O3     O3        0.501629565001410    0.277208480576911    0.314269080743988  0.0000
  O2     O2        0.509859640884390    0.242831561156937    0.711174071753127  0.0000
  O2     O2        0.498059295603882    0.699885825804027    0.737992218064491  0.0000
  O3     O3        0.458791571519874    0.759102375597053    0.302991939818535  0.0000
  O3     O3        0.205403849356976    0.163032562058517    0.188381471530463  0.0000
  O3     O3        0.798673970535147    0.165399261520808    0.828249982639661  0.0000
  O3     O3        0.785251009385238    0.797790220580635    0.842510504818574  0.0000
  O2     O2        0.164893835912869    0.831821204429410    0.247626122074486  0.0000
  O2     O2        0.280043354039289    0.459784586764325    0.670177664349868  0.0000
  O3     O3        0.705135178208340    0.521269802785295    0.402664693287064  0.0000
  O2     O2        0.234082675811759    0.126230092196035    0.695329118637708  0.0000
  O3     O3        0.793590891385515    0.224642696004486    0.344540544059973  0.0000
  O1     O1        0.749740749904070    0.863645389762109    0.329846802350092  0.0000
  O2     O2        0.207721771592083    0.785949679889881    0.677861785847821  0.0000
  O3     O3        0.043600091850914    0.991164612729291    0.474437686959342  0.0000
  O3     O3        0.934469475724814    0.042519391733360    0.190779793415232  0.0000
  O3     O3        0.979470998751665    0.965768065867487    0.705625621938907  0.0000
  O3     O3        0.050895556387697    0.968150554076267    0.993453528608298  0.0000
