data_c00009.vasp
_audit_creation_method             Generated by GULP
_audit_author_name                 Salvador R. G. Balestra
_symmetry_space_group_name_H-M     'P 1             '
_symmetry_Int_Tables_number        1

loop_
_symmetry_equiv_pos_site_id
_symmetry_equiv_pos_as_xyz
_cell_length_a                       17.7063
_cell_length_b                        7.8481
_cell_length_c                       10.2504
_cell_angle_alpha                   89.5515
_cell_angle_beta                    90.1570
_cell_angle_gamma                   91.1901

loop_
_atom_site_label
_atom_site_type_symbol
_atom_site_fract_x
_atom_site_fract_y
_atom_site_fract_z
_atom_site_charge
  Ge     Ge        0.052090000000021    0.000000000000000    0.372269999999958  0.0000
  Ge     Ge        0.447611903909208    0.052116735103338    0.362331643446309  0.0000
  Ge     Ge        0.945566825771678    0.065440658033398    0.619263017436537  0.0000
  Ge     Ge        0.551271883860821    0.015142963287420    0.618935003303942  0.0000
  Ge     Ge        0.553371800172721    0.001288741454258    0.109465950848550  0.0000
  Ge     Ge        0.949708804633467    0.066498501701319    0.117378403145547  0.0000
  Ge     Ge        0.445005363437147    0.062187385655362    0.864687064055765  0.0000
  Ge     Ge        0.053308680194524    0.003667155073899    0.865974007978710  0.0000
  Ge     Ge        0.174530138337958    0.284505744481081    0.298497857589413  0.0000
  Ge     Ge        0.328309038089795    0.759545784182134    0.299469376491429  0.0000
  Ge     Ge        0.852984083668509    0.378738051317793    0.736826945494663  0.0000
  Ge     Ge        0.644689456800967    0.701197685806761    0.738167449214989  0.0000
  Ge     Ge        0.823952033949196    0.780584572347086    0.731312442279389  0.0000
  Ge     Ge        0.672739630310397    0.298584352611777    0.733013545366703  0.0000
  Ge     Ge        0.148031234619352    0.683451486506198    0.306533395377222  0.0000
  Ge     Ge        0.671694410346842    0.300688152854780    0.048439151646525  0.0000
  Ge     Ge        0.826907775611576    0.778976140716091    0.047635094536903  0.0000
  Ge     Ge        0.353028388855370    0.372147991549397    0.986382671033269  0.0000
  Ge     Ge        0.145605005491623    0.690292922516349    0.987846012039754  0.0000
  Ge     Ge        0.325198913967979    0.775297230522160    0.982932714115863  0.0000
  Ge     Ge        0.174458699582023    0.287110262473266    0.980997694646535  0.0000
  Ge     Ge        0.851149649374952    0.379953892866537    0.055881825676580  0.0000
  Si     Si        0.350514308941140    0.365401429738980    0.296891059361634  0.0000
  Si     Si        0.651527513636933    0.694988673288308    0.048708752692949  0.0000
  O1     O1        0.128256700208973    0.137648677046690    0.393502024754901  0.0000
  O1     O1        0.379836370081562    0.896839160195843    0.394772809840224  0.0000
  O1     O1        0.920384913064096    0.270115039111914    0.653345159495636  0.0000
  O1     O1        0.575484324286362    0.809877603286537    0.659458636493044  0.0000
  O1     O1        0.869203976854958    0.930788232264414    0.637114788118750  0.0000
  O1     O1        0.627232645276166    0.150629128851903    0.638528725957696  0.0000
  O1     O1        0.084262415200263    0.797180018863926    0.394974100656977  0.0000
  O3     O3        0.409644751209058    0.253756302126468    0.377353993564271  0.0000
  O1     O1        0.974615037535658    0.052631542772722    0.458803240099862  0.0000
  O1     O1        0.525523291747310    0.027025461507676    0.456927161240040  0.0000
  O1     O1        0.025629701321730    0.017329178940567    0.209438997496647  0.0000
  O1     O1        0.475516516205065    0.026719036811524    0.202649359847512  0.0000
  O1     O1        0.023699481735531    0.004984627297446    0.706189368466978  0.0000
  O1     O1        0.472136930166777    0.070084674592759    0.704004371431802  0.0000
  O1     O1        0.618932401467267    0.161341931081353    0.140630148744721  0.0000
  O1     O1        0.874745170646182    0.924526515137143    0.139346344765289  0.0000
  O1     O1        0.422366952271771    0.266271846872158    0.908801216753395  0.0000
  O1     O1        0.077780267502811    0.798406064448000    0.904668493650078  0.0000
  O1     O1        0.369476485543351    0.924480333569454    0.886080590610293  0.0000
  O1     O1        0.129425825640705    0.140382629149271    0.884960166108945  0.0000
  O3     O3        0.594220675403817    0.803059663889249    0.133461908782158  0.0000
  O1     O1        0.915284925434339    0.266720540430191    0.144272051542697  0.0000
  O1     O1        0.523453766220524    0.000543858529549    0.949662841091422  0.0000
  O1     O1        0.977551071357084    0.065268321451853    0.956085098337278  0.0000
  O1     O1        0.156932873169093    0.481051878434237    0.364762643637698  0.0000
  O3     O3        0.339896419440372    0.551093209943016    0.356844875570095  0.0000
  O1     O1        0.840635308682041    0.579195895910708    0.673220949476734  0.0000
  O1     O1        0.655419525021204    0.501240504177151    0.675611785567401  0.0000
  O3     O3        0.271319418515159    0.258710068808599    0.294471341095830  0.0000
  O1     O1        0.233290509836288    0.794420303264694    0.307129307401332  0.0000
  O1     O1        0.768299602265615    0.266693325303264    0.731488669275922  0.0000
  O1     O1        0.728606250035896    0.814475930831444    0.726690035263109  0.0000
  O1     O1        0.143129697400555    0.269753312700681    0.139690024558913  0.0000
  O1     O1        0.357558809053924    0.788039560297258    0.140830149286493  0.0000
  O1     O1        0.879959204828486    0.402336535344321    0.896170687618994  0.0000
  O3     O3        0.622052846986163    0.670109372723497    0.901081243389970  0.0000
  O1     O1        0.857540657854765    0.795886006222184    0.888665417371568  0.0000
  O1     O1        0.640471461056276    0.277493334619116    0.890663723746359  0.0000
  O1     O1        0.118248284929629    0.666092550921241    0.147354340780462  0.0000
  O3     O3        0.378175984529647    0.394277527463020    0.149002550030987  0.0000
  O3     O3        0.662698089963798    0.507761287470087    0.107438826179689  0.0000
  O1     O1        0.843130523008514    0.580915179010169    0.114828421016147  0.0000
  O1     O1        0.341841564971423    0.573281726991151    0.924945334362671  0.0000
  O1     O1        0.157706553576151    0.490919938714273    0.925050567684217  0.0000
  O1     O1        0.766657253683904    0.265482829729107    0.055208119365908  0.0000
  O3     O3        0.730067940241580    0.803931182019552    0.043075188805184  0.0000
  O1     O1        0.269993735026508    0.255835786841133    0.975497177833570  0.0000
  O1     O1        0.229512695447478    0.805372676363292    0.982226166934419  0.0000
