data_c00045.vasp
_audit_creation_method             Generated by GULP
_audit_author_name                 Salvador R. G. Balestra
_symmetry_space_group_name_H-M     'P 1             '
_symmetry_Int_Tables_number        1

loop_
_symmetry_equiv_pos_site_id
_symmetry_equiv_pos_as_xyz
_cell_length_a                       17.5887
_cell_length_b                        7.8724
_cell_length_c                       10.2347
_cell_angle_alpha                   89.9290
_cell_angle_beta                    89.9620
_cell_angle_gamma                   91.6570

loop_
_atom_site_label
_atom_site_type_symbol
_atom_site_fract_x
_atom_site_fract_y
_atom_site_fract_z
_atom_site_charge
  Ge     Ge        0.052090000000021    0.000000000000000    0.372269999999958  0.0000
  Ge     Ge        0.447572726167470    0.057738268505409    0.366603886314279  0.0000
  Ge     Ge        0.944930485442407    0.056136908486006    0.620587211847144  0.0000
  Ge     Ge        0.941680598563252    0.055755649986722    0.128166939990664  0.0000
  Ge     Ge        0.451350964275606    0.060285546343132    0.867956290724508  0.0000
  Ge     Ge        0.046837274475835    0.995591238081394    0.875922780422716  0.0000
  Ge     Ge        0.173612226794011    0.287767079249441    0.257858076324003  0.0000
  Ge     Ge        0.325645146568688    0.771263776449111    0.257165290156975  0.0000
  Ge     Ge        0.845991676473396    0.367599364763990    0.689460773151223  0.0000
  Ge     Ge        0.640788753938027    0.691987069361395    0.691287600502896  0.0000
  Ge     Ge        0.822825981028075    0.768332192121857    0.694396348340867  0.0000
  Ge     Ge        0.664209637233629    0.291199112428821    0.692549861208676  0.0000
  Ge     Ge        0.144162889058185    0.686730745544930    0.254876411939402  0.0000
  Ge     Ge        0.355354154892636    0.371856068954395    0.254974172736916  0.0000
  Ge     Ge        0.665455709363830    0.289439010733712    0.010391567406082  0.0000
  Ge     Ge        0.822004301629780    0.767707959339329    0.010459331166359  0.0000
  Ge     Ge        0.352460195800453    0.370735295190080    0.937271725377669  0.0000
  Ge     Ge        0.146809352270072    0.684740115999847    0.936076252220782  0.0000
  Ge     Ge        0.326976616802890    0.771426668111098    0.939983242418915  0.0000
  Ge     Ge        0.171984968874837    0.284721733655394    0.941283063336283  0.0000
  Ge     Ge        0.639009915906484    0.689990992045430    0.006318052080082  0.0000
  Ge     Ge        0.848225108308475    0.366928878755429    0.007823695294910  0.0000
  Si     Si        0.550231520025531    0.003049318343595    0.615301877718053  0.0000
  Si     Si        0.551099176150202    0.000637104716473    0.120484401261761  0.0000
  O1     O1        0.128820665220836    0.135336299297290    0.351142590261286  0.0000
  O1     O1        0.370260542096675    0.923635398846289    0.350478942211865  0.0000
  O1     O1        0.909383346081006    0.255077917434285    0.598952422292649  0.0000
  O3     O3        0.581338962756915    0.814878249762809    0.596724743326991  0.0000
  O1     O1        0.871996809335632    0.908752994407634    0.596844014920192  0.0000
  O3     O3        0.616856370485696    0.145050985380464    0.593717528309259  0.0000
  O1     O1        0.076775113479941    0.795380673863635    0.339011242710904  0.0000
  O1     O1        0.421663377045484    0.262774146307565    0.341779442726311  0.0000
  O1     O1        0.024477523158125    0.014912468749669    0.533785607372603  0.0000
  O3     O3        0.478138232398922    0.037839087447477    0.526985256750249  0.0000
  O1     O1        0.972218578401774    0.055496381647009    0.287596609192986  0.0000
  O3     O3        0.523171039528848    0.003286019516565    0.269352539488939  0.0000
  O1     O1        0.970089754443783    0.040257870211825    0.783963555978224  0.0000
  O3     O3        0.526273498033071    0.020127337130982    0.767835438893352  0.0000
  O3     O3        0.622645282867638    0.130352922614956    0.102388599709276  0.0000
  O1     O1        0.865199295609876    0.917869710604557    0.107290525540107  0.0000
  O1     O1        0.416098156429532    0.259638362680156    0.846712957470819  0.0000
  O1     O1        0.081998869945125    0.796376755938043    0.848844974141905  0.0000
  O1     O1        0.378274279788947    0.913506127403268    0.847155015073858  0.0000
  O1     O1        0.120416315024720    0.141864096439250    0.850710851715546  0.0000
  O3     O3        0.573671233728345    0.808348809199022    0.089208783350537  0.0000
  O1     O1        0.915042111953821    0.259064449714877    0.092307491096517  0.0000
  O3     O3        0.481933159125586    0.056554850295976    0.029279371428277  0.0000
  O1     O1        0.018514893695919    0.997870397944034    0.037537555833107  0.0000
  O1     O1        0.156081762637261    0.487345554800078    0.318447829023644  0.0000
  O1     O1        0.343012624521570    0.571146793512792    0.317219961957560  0.0000
  O1     O1        0.835019565557368    0.567642737338806    0.630545154711680  0.0000
  O1     O1        0.649893240770653    0.492102968882226    0.629564036938028  0.0000
  O1     O1        0.269833075807778    0.259202211748667    0.257926024542971  0.0000
  O1     O1        0.229378048511792    0.800182873970853    0.259365276977597  0.0000
  O1     O1        0.759816650345215    0.256467345735439    0.691408484381117  0.0000
  O1     O1        0.727016914799432    0.800865252001468    0.697709447026663  0.0000
  O1     O1        0.140065421584882    0.272596378581135    0.100438197270084  0.0000
  O1     O1        0.358040091802214    0.785940506568634    0.099084635270459  0.0000
  O1     O1        0.877052351128076    0.385979606181849    0.848155275446212  0.0000
  O1     O1        0.607643756331750    0.668168837873603    0.848196149323330  0.0000
  O1     O1        0.856015324540424    0.781955526657205    0.852867569390542  0.0000
  O1     O1        0.633091341056088    0.281638464470853    0.851971363015142  0.0000
  O1     O1        0.116785097405582    0.661477690974472    0.095459500933515  0.0000
  O1     O1        0.383962719851170    0.393036870094007    0.095617382922565  0.0000
  O1     O1        0.647162131358054    0.489355071381730    0.070453316659650  0.0000
  O1     O1        0.838440772845220    0.567245454583623    0.070116425309613  0.0000
  O1     O1        0.339580644283094    0.569889310801789    0.877633011791720  0.0000
  O1     O1        0.159222689616375    0.485472625042279    0.876635600981718  0.0000
  O1     O1        0.761461853869630    0.259521375297900    0.012502287303036  0.0000
  O1     O1        0.725645083639054    0.795198870434913    0.007215492741599  0.0000
  O1     O1        0.267943939243592    0.252925548669624    0.940459115538422  0.0000
  O1     O1        0.231076005445181    0.803453571516181    0.937441318918989  0.0000
