data_c00031.vasp
_audit_creation_method             Generated by GULP
_audit_author_name                 Salvador R. G. Balestra
_symmetry_space_group_name_H-M     'P 1             '
_symmetry_Int_Tables_number        1

loop_
_symmetry_equiv_pos_site_id
_symmetry_equiv_pos_as_xyz
_cell_length_a                       17.5309
_cell_length_b                        7.8672
_cell_length_c                       10.3750
_cell_angle_alpha                   89.9987
_cell_angle_beta                    90.0004
_cell_angle_gamma                   88.2776

loop_
_atom_site_label
_atom_site_type_symbol
_atom_site_fract_x
_atom_site_fract_y
_atom_site_fract_z
_atom_site_charge
  Ge     Ge        0.052090000000021    0.000000000000000    0.372269999999958  0.0000
  Ge     Ge        0.443740667756221    0.941970263667147    0.372273093831275  0.0000
  Ge     Ge        0.950714552724548    0.943457658758321    0.628168609781990  0.0000
  Ge     Ge        0.545114748643783    0.998559671838682    0.628163654976647  0.0000
  Ge     Ge        0.550146636415574    0.003383426353634    0.123622007570256  0.0000
  Ge     Ge        0.945686093664128    0.938617554163976    0.123619096070123  0.0000
  Ge     Ge        0.141575458578729    0.314942371258415    0.255850403707244  0.0000
  Ge     Ge        0.354254262457612    0.627036619841765    0.255869533093547  0.0000
  Ge     Ge        0.825042646761977    0.228431059357259    0.697848797459421  0.0000
  Ge     Ge        0.670788227744529    0.713580418473035    0.697837717601513  0.0000
  Ge     Ge        0.852158668912837    0.628478158060657    0.695304953223633  0.0000
  Ge     Ge        0.643669599051693    0.313528933920679    0.695318716921672  0.0000
  Ge     Ge        0.172398799833498    0.712544141143700    0.259165972027524  0.0000
  Ge     Ge        0.323426697851025    0.229430899106043    0.259151005932484  0.0000
  Ge     Ge        0.642511391723802    0.315468671358511    0.009245116159091  0.0000
  Ge     Ge        0.853321517100870    0.626535429501968    0.009238052712751  0.0000
  Ge     Ge        0.329637437464166    0.233689739755182    0.947285866404973  0.0000
  Ge     Ge        0.166190096180923    0.708351176890831    0.947308744023896  0.0000
  Ge     Ge        0.349924602443018    0.633909470657276    0.943122960457259  0.0000
  Ge     Ge        0.145906939759378    0.308135872923964    0.943093761063035  0.0000
  Ge     Ge        0.671811733059229    0.715593081347111    0.011689862101459  0.0000
  Ge     Ge        0.824023534915415    0.226415290223859    0.011696173315402  0.0000
  Si     Si        0.446915870020741    0.940793408834158    0.879719329148561  0.0000
  Si     Si        0.048913768150219    0.001251100809532    0.879723476171782  0.0000
  O1     O1        0.074704656229116    0.206408020507541    0.339894476636409  0.0000
  O1     O1        0.421118025077423    0.735555421131842    0.339944417992463  0.0000
  O1     O1        0.875587706592531    0.085683347095975    0.604992514710600  0.0000
  O1     O1        0.620236686585972    0.856323466197100    0.604981201281793  0.0000
  O1     O1        0.917892733328188    0.741521373020268    0.610810825173876  0.0000
  O1     O1        0.577941739294106    0.200491545023560    0.610806622768788  0.0000
  O1     O1        0.130309644523227    0.867640213060199    0.351498949817939  0.0000
  O1     O1        0.365517698726653    0.074309755798680    0.351459117379675  0.0000
  O1     O1        0.025705318178801    0.984211422986746    0.531478996361775  0.0000
  O1     O1        0.470118653486979    0.957819706571650    0.531481150918365  0.0000
  O1     O1        0.975962932765338    0.940907223143779    0.280677477424451  0.0000
  O1     O1        0.519872261874713    0.001039042307065    0.280680821040389  0.0000
  O3     O3        0.978166455637092    0.967363345021739    0.788882096211508  0.0000
  O3     O3        0.517667833002973    0.974649597480294    0.788880226066531  0.0000
  O1     O1        0.574572919702157    0.208523346735841    0.091737348983920  0.0000
  O1     O1        0.921268639733419    0.733482462609507    0.091703443096088  0.0000
  O3     O3        0.380604854092488    0.084875809328227    0.857792759857450  0.0000
  O3     O3        0.115233061268356    0.857187120976413    0.857813684817232  0.0000
  O3     O3        0.411782539859870    0.756436974477873    0.855195327781106  0.0000
  O3     O3        0.084037903405213    0.185616166783342    0.855186727375297  0.0000
  O1     O1        0.627199957988916    0.866240672215616    0.105808098177602  0.0000
  O1     O1        0.868630724171748    0.075760855801621    0.105822894732928  0.0000
  O3     O3        0.474576935859070    0.942909229015425    0.028290021390021  0.0000
  O3     O3        0.021249728341670    0.999141582535027    0.028291902714649  0.0000
  O1     O1        0.154477732283245    0.512981636020271    0.319501941227217  0.0000
  O1     O1        0.341351343701860    0.428981408018114    0.319499519684125  0.0000
  O1     O1        0.839398294153986    0.429408790242927    0.635825000879077  0.0000
  O1     O1        0.656431663519883    0.512597568255377    0.635833019430470  0.0000
  O1     O1        0.227114005352103    0.201126103954717    0.256462261867028  0.0000
  O1     O1        0.268711807650025    0.740837506367023    0.256468723642266  0.0000
  O1     O1        0.728722865366441    0.196631009948522    0.694851601727553  0.0000
  O1     O1        0.767107412094973    0.745383382866973    0.694823949029610  0.0000
  O1     O1        0.113819208605624    0.337038620486360    0.098035876341050  0.0000
  O1     O1        0.382029489378765    0.605009636984275    0.098057242692580  0.0000
  O1     O1        0.855622404001888    0.213492317582261    0.855250701872675  0.0000
  O1     O1        0.640215669199031    0.728511849614257    0.855242074547331  0.0000
  O1     O1        0.882019888248585    0.604606365580240    0.851997007992340  0.0000
  O1     O1        0.613798513325596    0.337375668636897    0.852006490321682  0.0000
  O1     O1        0.136386125285861    0.721867707239771    0.104826748505358  0.0000
  O1     O1        0.359432234222569    0.220165387710910    0.104808170734132  0.0000
  O1     O1        0.654661595926816    0.514915964915237    0.070741445612837  0.0000
  O1     O1        0.841173660359485    0.427089577747542    0.070747267993494  0.0000
  O1     O1        0.343110594267578    0.432768164586381    0.882006147823672  0.0000
  O1     O1        0.152716786879692    0.509293340170458    0.881997445452949  0.0000
  O1     O1        0.727269431620039    0.199135804147641    0.013456825335056  0.0000
  O1     O1        0.768565582627973    0.742876395241045    0.013460808765860  0.0000
  O1     O1        0.233231119907069    0.202198955010264    0.944713054368554  0.0000
  O1     O1        0.262597442928454    0.739833984478187    0.944767736008009  0.0000
