data_c00046.vasp
_audit_creation_method             Generated by GULP
_audit_author_name                 Salvador R. G. Balestra
_symmetry_space_group_name_H-M     'P 1             '
_symmetry_Int_Tables_number        1

loop_
_symmetry_equiv_pos_site_id
_symmetry_equiv_pos_as_xyz
_cell_length_a                       17.7952
_cell_length_b                        7.9217
_cell_length_c                       10.2666
_cell_angle_alpha                   89.9698
_cell_angle_beta                    90.2484
_cell_angle_gamma                   90.1650

loop_
_atom_site_label
_atom_site_type_symbol
_atom_site_fract_x
_atom_site_fract_y
_atom_site_fract_z
_atom_site_charge
  Ge     Ge        0.052090000000021    0.000000000000000    0.372269999999958  0.0000
  Ge     Ge        0.447739724395703    0.028796729124821    0.406263486000485  0.0000
  Ge     Ge        0.554764435300481    0.024518775580510    0.154730743687423  0.0000
  Ge     Ge        0.949488170870328    0.007146231753962    0.112642993028329  0.0000
  Ge     Ge        0.448815659007658    0.022204243398643    0.899707105178205  0.0000
  Ge     Ge        0.052566461205120    0.997822273215362    0.855657594841396  0.0000
  Ge     Ge        0.169733321169711    0.282726321205472    0.292645736969095  0.0000
  Ge     Ge        0.329381132661823    0.743902896776965    0.287261995809565  0.0000
  Ge     Ge        0.833047393009274    0.290222874822526    0.725679930265736  0.0000
  Ge     Ge        0.664659834810620    0.729920488294357    0.719490877444974  0.0000
  Ge     Ge        0.847617159671598    0.693307348360107    0.719525476113823  0.0000
  Ge     Ge        0.650689261566417    0.327950888511971    0.722995323091934  0.0000
  Ge     Ge        0.149225069785577    0.687407457554532    0.289274288342109  0.0000
  Ge     Ge        0.350215631816829    0.339460177333574    0.292614415776878  0.0000
  Ge     Ge        0.650114052454881    0.337629667121135    0.040447377998634  0.0000
  Ge     Ge        0.850621718823877    0.691610514235763    0.035388435951507  0.0000
  Ge     Ge        0.350495186050579    0.337142054785097    0.976297876714903  0.0000
  Ge     Ge        0.148279412886914    0.685560770511603    0.972672867129101  0.0000
  Ge     Ge        0.329102263920413    0.739900065938100    0.970871960810978  0.0000
  Ge     Ge        0.170024773292624    0.279558407846026    0.976515058600984  0.0000
  Ge     Ge        0.670592760280659    0.740438895781643    0.034811189140673  0.0000
  Ge     Ge        0.830121945797387    0.290287885618196    0.042717108857385  0.0000
  Si     Si        0.944468999599301    0.000988141692137    0.611585796269308  0.0000
  Si     Si        0.552436488757498    0.017940668669628    0.652860242160649  0.0000
  O1     O1        0.120687024731582    0.150574270749881    0.393733933599807  0.0000
  O1     O1        0.376952050309601    0.885529428383155    0.382059533689679  0.0000
  O3     O3        0.882959316865634    0.143164448884086    0.638725101252361  0.0000
  O3     O3        0.612325760166138    0.869914786914953    0.626978409638078  0.0000
  O3     O3        0.908286336814652    0.816958331868002    0.629986198497465  0.0000
  O3     O3        0.592445696872157    0.198253152328507    0.631646435379088  0.0000
  O1     O1        0.090211129461075    0.802606983638663    0.386333743170180  0.0000
  O1     O1        0.413312474398807    0.228660073730148    0.384959455975448  0.0000
  O3     O3        0.971994135121391    0.021656206690591    0.463472289760358  0.0000
  O3     O3        0.478264042925713    0.003769864823766    0.566083357293976  0.0000
  O1     O1        0.024492935944451    0.030108984361818    0.212335934589430  0.0000
  O1     O1        0.524946507832233    0.996008615104382    0.311506853755236  0.0000
  O3     O3        0.019961433519323    0.020177140050955    0.697379709734307  0.0000
  O3     O3        0.526657590944348    0.000812046880923    0.803156854831589  0.0000
  O1     O1        0.586552099627757    0.227538225365238    0.130844036077632  0.0000
  O1     O1        0.911342216010044    0.808334218128373    0.127794964466286  0.0000
  O1     O1        0.411336625603547    0.220658484001862    0.884474993514154  0.0000
  O1     O1        0.085207263257328    0.796243000868353    0.880486219988637  0.0000
  O1     O1        0.378868028790913    0.875040075786609    0.874149610709012  0.0000
  O1     O1        0.125140375879758    0.138155038439786    0.877942995478088  0.0000
  O1     O1        0.626910594523820    0.885872179471621    0.129121784627698  0.0000
  O1     O1        0.880004231303156    0.154692184852791    0.137794307429314  0.0000
  O1     O1        0.478751980563525    0.986361011718566    0.056729698171265  0.0000
  O1     O1        0.978597113517490    0.040636309317943    0.954780598961611  0.0000
  O1     O1        0.158063940671985    0.486933076960926    0.347207520275657  0.0000
  O1     O1        0.341187379033832    0.542179803133517    0.347609547833249  0.0000
  O1     O1        0.844603780504245    0.489844989443775    0.661699172022933  0.0000
  O1     O1        0.652858721705791    0.528186468210048    0.659849916117116  0.0000
  O1     O1        0.264092452792376    0.239275317865992    0.295356210801212  0.0000
  O1     O1        0.235172498023806    0.788150053169267    0.286683056987396  0.0000
  O1     O1        0.739152560567273    0.241377990580641    0.721677450763926  0.0000
  O1     O1        0.758763375646978    0.777877367958221    0.714031904321898  0.0000
  O1     O1        0.137921829515993    0.269387247557292    0.134101190908948  0.0000
  O1     O1        0.360732127629963    0.749961544087581    0.129588379872744  0.0000
  O1     O1        0.862152121241655    0.290250283932745    0.884383294810468  0.0000
  O1     O1        0.635602523839228    0.736775910191144    0.878504890769748  0.0000
  O1     O1        0.881366666615058    0.687609280264073    0.876150356736262  0.0000
  O1     O1        0.619824729694829    0.339902214658252    0.880810882447885  0.0000
  O1     O1        0.116631756671150    0.683409600038311    0.131006390341151  0.0000
  O1     O1        0.382460487020051    0.343049957767512    0.134873331291771  0.0000
  O1     O1        0.658849916230570    0.539820737336626    0.097377542838312  0.0000
  O1     O1        0.841826198854498    0.493923071663058    0.099140182881104  0.0000
  O1     O1        0.341733810144991    0.536376269124752    0.915304971928579  0.0000
  O1     O1        0.156478696657617    0.482014421017922    0.918792834828524  0.0000
  O1     O1        0.736522091010554    0.240296244023900    0.044059866307544  0.0000
  O1     O1        0.764274774913076    0.788464345796866    0.028734924932415  0.0000
  O1     O1        0.264417542243107    0.237638510456326    0.978655419722972  0.0000
  O1     O1        0.234809413758134    0.783568830497526    0.968031500976386  0.0000
