data_c00028.vasp
_audit_creation_method             Generated by GULP
_audit_author_name                 Salvador R. G. Balestra
_symmetry_space_group_name_H-M     'P 1             '
_symmetry_Int_Tables_number        1

loop_
_symmetry_equiv_pos_site_id
_symmetry_equiv_pos_as_xyz
_cell_length_a                       17.8274
_cell_length_b                        7.9172
_cell_length_c                       10.3855
_cell_angle_alpha                   90.7355
_cell_angle_beta                    90.2410
_cell_angle_gamma                   89.5806

loop_
_atom_site_label
_atom_site_type_symbol
_atom_site_fract_x
_atom_site_fract_y
_atom_site_fract_z
_atom_site_charge
  Ge     Ge        0.052090000000021    0.000000000000000    0.372269999999958  0.0000
  Ge     Ge        0.442096550383940    0.023519133198377    0.370169661968239  0.0000
  Ge     Ge        0.948148953860493    0.977376024443101    0.625899604217452  0.0000
  Ge     Ge        0.547822980163249    0.009425450487324    0.621011138531804  0.0000
  Ge     Ge        0.550323173426361    0.016620113570378    0.123176654938107  0.0000
  Ge     Ge        0.940449437476031    0.981444888608963    0.127862899763380  0.0000
  Ge     Ge        0.442707093446225    0.998003314583696    0.874604853547585  0.0000
  Ge     Ge        0.162073801035538    0.295513998712802    0.263664404995028  0.0000
  Ge     Ge        0.325513286147249    0.734397089638398    0.249742066777556  0.0000
  Ge     Ge        0.827707373087953    0.263535602100373    0.696872272397097  0.0000
  Ge     Ge        0.667739301976398    0.725709116227188    0.694932579495626  0.0000
  Ge     Ge        0.847655744667621    0.666876680417594    0.699634004949155  0.0000
  Ge     Ge        0.648014443327054    0.322651030207786    0.692403944025469  0.0000
  Ge     Ge        0.343120753862104    0.332460200074753    0.262531517372019  0.0000
  Ge     Ge        0.643556306723844    0.328041531985060    0.005825572011166  0.0000
  Ge     Ge        0.848072673194100    0.666197172240294    0.012612941063280  0.0000
  Ge     Ge        0.338093944638595    0.311416613207412    0.948344817323486  0.0000
  Ge     Ge        0.143688368573643    0.681515166387826    0.946504600616877  0.0000
  Ge     Ge        0.323907838604052    0.714834599324425    0.936589573928351  0.0000
  Ge     Ge        0.156364712149318    0.276496755443329    0.952678890248188  0.0000
  Ge     Ge        0.667934808081258    0.730541247336025    0.007310856119769  0.0000
  Ge     Ge        0.823604931849251    0.263729415599639    0.009703611849532  0.0000
  Si     Si        0.043733125814631    0.991838112018954    0.882203027797096  0.0000
  Si     Si        0.149112951730540    0.692205180905220    0.252426242828500  0.0000
  O1     O1        0.111399887277197    0.168010042025044    0.361610995203838  0.0000
  O1     O1        0.370439402718095    0.886470741200655    0.336245426611526  0.0000
  O1     O1        0.879381231937680    0.127964474951219    0.602832762804643  0.0000
  O1     O1        0.616793030002308    0.858503104021210    0.599173219688234  0.0000
  O1     O1        0.908830661504061    0.781465866475545    0.609346783814406  0.0000
  O1     O1        0.586796191966863    0.205107021514472    0.601191319023243  0.0000
  O3     O3        0.094080627961590    0.808145728749710    0.336129700293699  0.0000
  O1     O1        0.406814633709707    0.224175115359279    0.353696477127709  0.0000
  O1     O1        0.024303148440000    0.997334330954191    0.530539172330963  0.0000
  O1     O1        0.470342093807756    0.987695864288974    0.526092125790265  0.0000
  O1     O1        0.972002826291093    0.017343503402262    0.281734737663434  0.0000
  O1     O1        0.521566601693824    0.997046187012786    0.279911137819874  0.0000
  O3     O3        0.974920336238664    0.009010574424247    0.786128592054251  0.0000
  O1     O1        0.519177531347641    0.986495126199258    0.778559840203930  0.0000
  O1     O1        0.579129978323287    0.219156492406799    0.092740497506618  0.0000
  O1     O1        0.910018671515595    0.777968857044936    0.106102292673632  0.0000
  O1     O1        0.397250920620479    0.189067267404121    0.857907047782051  0.0000
  O3     O3        0.080526032528379    0.805900280379758    0.864378298859295  0.0000
  O1     O1        0.377511674479281    0.842185941787327    0.844026611634810  0.0000
  O3     O3        0.106506026478693    0.134078774332121    0.859659668194104  0.0000
  O1     O1        0.623406040443635    0.878002257575583    0.100920816979728  0.0000
  O1     O1        0.866925922729112    0.117944211094026    0.103879972083470  0.0000
  O1     O1        0.473295050518667    0.971009084841019    0.030487624808698  0.0000
  O3     O3        0.015382171683383    0.020894415092468    0.027816547361381  0.0000
  O3     O3        0.155661927914800    0.506681021337938    0.312144228411446  0.0000
  O1     O1        0.340627668393642    0.538642105945242    0.314729628409371  0.0000
  O1     O1        0.838519699322234    0.466039666282498    0.640419706602412  0.0000
  O1     O1        0.657286869863177    0.522406559019291    0.635454251863882  0.0000
  O1     O1        0.255383085715982    0.243816533534619    0.270779512642345  0.0000
  O3     O3        0.230239337746653    0.779325750187148    0.247843423591622  0.0000
  O1     O1        0.733543345750050    0.219413021230044    0.692952590053337  0.0000
  O1     O1        0.761766126232464    0.769561966680743    0.697383217045018  0.0000
  O1     O1        0.127723314078968    0.273285299949853    0.110441979276605  0.0000
  O1     O1        0.355297495562244    0.728429486320504    0.093508831320632  0.0000
  O1     O1        0.856689770102745    0.254968628488615    0.854912658964553  0.0000
  O1     O1        0.635826111040756    0.738101694355906    0.851228496114202  0.0000
  O1     O1        0.879251308580996    0.658359321839835    0.856170712139326  0.0000
  O1     O1        0.614771390666693    0.334790170457563    0.847751693962228  0.0000
  O3     O3        0.117853237405783    0.676093295563850    0.107264685957162  0.0000
  O1     O1        0.371223654102591    0.321550051658210    0.104151163643643  0.0000
  O1     O1        0.651903728908018    0.530272126869324    0.064543606462310  0.0000
  O1     O1        0.838670213482053    0.465502531012910    0.069245667978209  0.0000
  O1     O1        0.331846024046883    0.508788906416076    0.884265667672238  0.0000
  O1     O1        0.143960365609185    0.476805254738778    0.891626932847223  0.0000
  O1     O1        0.728980930869602    0.226200512232536    0.009462349963182  0.0000
  O1     O1        0.762370249243904    0.767557583836066    0.010685246732936  0.0000
  O1     O1        0.249789602151084    0.224698647052253    0.951360508087129  0.0000
  O1     O1        0.230615350537313    0.769428537569255    0.931346798484985  0.0000
