data_c00034.vasp
_audit_creation_method             Generated by GULP
_audit_author_name                 Salvador R. G. Balestra
_symmetry_space_group_name_H-M     'P 1             '
_symmetry_Int_Tables_number        1

loop_
_symmetry_equiv_pos_site_id
_symmetry_equiv_pos_as_xyz
_cell_length_a                       17.8210
_cell_length_b                        7.9051
_cell_length_c                       10.4017
_cell_angle_alpha                   89.6257
_cell_angle_beta                    90.4274
_cell_angle_gamma                   89.6432

loop_
_atom_site_label
_atom_site_type_symbol
_atom_site_fract_x
_atom_site_fract_y
_atom_site_fract_z
_atom_site_charge
  Ge     Ge        0.052090000000021    0.000000000000000    0.372269999999958  0.0000
  Ge     Ge        0.450618823799861    0.962137020865798    0.379015405533941  0.0000
  Ge     Ge        0.947140809207337    0.986531153390172    0.623596790185150  0.0000
  Ge     Ge        0.558948738335268    0.959863081736728    0.132250337751573  0.0000
  Ge     Ge        0.943633070390359    0.982203599017797    0.123877474598717  0.0000
  Ge     Ge        0.452029083509911    0.965805695585011    0.878652373762200  0.0000
  Ge     Ge        0.051740115678420    0.990180867324536    0.879289189226028  0.0000
  Ge     Ge        0.151290593690190    0.308429733453512    0.264070166251090  0.0000
  Ge     Ge        0.352204478368360    0.653751747915198    0.265164892719845  0.0000
  Ge     Ge        0.843917922293760    0.296498758585865    0.695399934392961  0.0000
  Ge     Ge        0.648272436330327    0.657822337253983    0.706714301741347  0.0000
  Ge     Ge        0.829521608001019    0.702288441221652    0.700368355500625  0.0000
  Ge     Ge        0.663714243779473    0.252358857721724    0.700121551703460  0.0000
  Ge     Ge        0.172574121029309    0.712071537982903    0.259409539100045  0.0000
  Ge     Ge        0.331073422156678    0.248019358120825    0.264874554450440  0.0000
  Ge     Ge        0.672803834065454    0.242146017807565    0.011584904193430  0.0000
  Ge     Ge        0.831947150995066    0.689680889644568    0.010002860576936  0.0000
  Ge     Ge        0.331529130119412    0.246637598723705    0.952701960288300  0.0000
  Ge     Ge        0.173319225610822    0.707158125359388    0.945809794589029  0.0000
  Ge     Ge        0.353057435299297    0.651143401692687    0.951459936887129  0.0000
  Ge     Ge        0.151463476538164    0.304783396775532    0.950951570926509  0.0000
  Ge     Ge        0.650757505910984    0.643834097635416    0.018985273435415  0.0000
  Si     Si        0.551633738194555    0.968737693706960    0.628712742628666  0.0000
  Si     Si        0.849271697155194    0.291212810523406    0.000329436558127  0.0000
  O1     O1        0.087710890909147    0.199472087062202    0.354270747008953  0.0000
  O1     O1        0.416479935930681    0.762843614628274    0.354506093055288  0.0000
  O1     O1        0.905061685918526    0.181822104806777    0.605066581938218  0.0000
  O3     O3        0.590065120567659    0.785483171712589    0.613278159042316  0.0000
  O1     O1        0.879379419351637    0.834354273014156    0.603003261848688  0.0000
  O3     O3        0.612103749770709    0.116164605188676    0.605171373415879  0.0000
  O1     O1        0.121785073169545    0.854913662579974    0.345113468494528  0.0000
  O1     O1        0.379915013809015    0.107156306988464    0.358769398384656  0.0000
  O1     O1        0.023707799102507    0.968721920079116    0.528777332665555  0.0000
  O3     O3        0.479908185889280    0.983631740717463    0.537591438170699  0.0000
  O1     O1        0.971958419922263    0.978457390704200    0.281716517846755  0.0000
  O1     O1        0.527649538097712    0.995050994589086    0.285022042743402  0.0000
  O1     O1        0.976689282578606    0.963284295465064    0.781183585150035  0.0000
  O3     O3        0.525660157913377    0.992077461464203    0.776063755361989  0.0000
  O1     O1        0.634319935420574    0.090010611185467    0.105304822952778  0.0000
  O1     O1        0.880529022607581    0.820566161643400    0.109433104323399  0.0000
  O1     O1        0.380278349251448    0.110478636400512    0.857574629323371  0.0000
  O1     O1        0.122689631153053    0.844731632918541    0.852927476852763  0.0000
  O1     O1        0.416066843161060    0.765867220991886    0.864055214563699  0.0000
  O1     O1        0.089417807802087    0.188817916500220    0.862270787652387  0.0000
  O1     O1        0.589495605757744    0.755048431612823    0.112000859415483  0.0000
  O3     O3        0.906367052940783    0.178888402774282    0.083662199758035  0.0000
  O1     O1        0.485176575250595    0.003763441367397    0.031299159013259  0.0000
  O1     O1        0.022736898559266    0.953807932147348    0.034877320204411  0.0000
  O1     O1        0.160592092076648    0.510223166255680    0.320085562694274  0.0000
  O1     O1        0.343010523653685    0.451157244982085    0.321064351420519  0.0000
  O1     O1        0.837688852804639    0.499884701796212    0.641384038280548  0.0000
  O1     O1        0.651757795240955    0.457474814398529    0.645570184551870  0.0000
  O1     O1        0.236888831098686    0.205624060604357    0.267949892154956  0.0000
  O1     O1        0.266729582564243    0.756720244857325    0.267280228005179  0.0000
  O1     O1        0.757285230352740    0.202175739598042    0.690651468340167  0.0000
  O1     O1        0.735584567821250    0.749358208777197    0.706181819583871  0.0000
  O1     O1        0.120357939468285    0.312744101476149    0.107053881027031  0.0000
  O1     O1        0.383230164821199    0.649021174716286    0.109082254029234  0.0000
  O3     O3        0.876811122036774    0.301153079832943    0.853491383101917  0.0000
  O1     O1        0.617551576578722    0.647460337890614    0.862650083966592  0.0000
  O1     O1        0.863362187425598    0.713737261027808    0.855860541735809  0.0000
  O1     O1        0.636641864745614    0.241878348349371    0.858134551973174  0.0000
  O1     O1        0.143020580545722    0.712880564054756    0.102553157154786  0.0000
  O1     O1        0.362809156293637    0.237308909352757    0.109819352097232  0.0000
  O1     O1        0.656460131669688    0.439564706420057    0.074331944575078  0.0000
  O3     O3        0.843453095710491    0.478991067362791    0.057270376245172  0.0000
  O1     O1        0.344477320971785    0.450109283106229    0.895533569340615  0.0000
  O1     O1        0.161180633592963    0.503961553541224    0.889479792259741  0.0000
  O3     O3        0.768107594616505    0.203271852360261    0.000791368518360  0.0000
  O1     O1        0.738090350508998    0.734887411855384    0.018266205768999  0.0000
  O1     O1        0.237549717846346    0.203354065241445    0.952237913993340  0.0000
  O1     O1        0.267184157194405    0.752476546384229    0.945439910083427  0.0000
