data_c00019.vasp
_audit_creation_method             Generated by GULP
_audit_author_name                 Salvador R. G. Balestra
_symmetry_space_group_name_H-M     'P 1             '
_symmetry_Int_Tables_number        1

loop_
_symmetry_equiv_pos_site_id
_symmetry_equiv_pos_as_xyz
_cell_length_a                       17.9284
_cell_length_b                        7.9474
_cell_length_c                       10.2201
_cell_angle_alpha                   88.5819
_cell_angle_beta                    90.6143
_cell_angle_gamma                   89.6374

loop_
_atom_site_label
_atom_site_type_symbol
_atom_site_fract_x
_atom_site_fract_y
_atom_site_fract_z
_atom_site_charge
  Ge     Ge        0.052090000000021    0.000000000000000    0.372269999999958  0.0000
  Ge     Ge        0.444132241959335    0.984839843144013    0.365469020171841  0.0000
  Ge     Ge        0.940522782147555    0.024847711968125    0.613097141404261  0.0000
  Ge     Ge        0.551198278252909    0.002808265953245    0.619030696266667  0.0000
  Ge     Ge        0.549572638398077    0.981070957920316    0.113455248077937  0.0000
  Ge     Ge        0.948746575677079    0.994489786763070    0.114718126948253  0.0000
  Ge     Ge        0.442295029102184    0.981475728423285    0.861893550321643  0.0000
  Ge     Ge        0.052147999893592    0.009678242340745    0.862228005551415  0.0000
  Ge     Ge        0.154492937272249    0.310947744278938    0.304318079656398  0.0000
  Ge     Ge        0.346628195489757    0.670361263918523    0.294967222665255  0.0000
  Ge     Ge        0.842948748912462    0.332810869752945    0.721531401990167  0.0000
  Ge     Ge        0.825871835798165    0.733183194112348    0.734501017667402  0.0000
  Ge     Ge        0.662150483196916    0.297477930033238    0.728094123735666  0.0000
  Ge     Ge        0.165691859931181    0.710587717263201    0.299309696161044  0.0000
  Ge     Ge        0.665970098530864    0.269206820513013    0.044192264121739  0.0000
  Ge     Ge        0.830589809904452    0.711532253574560    0.053540558073889  0.0000
  Ge     Ge        0.326880233001701    0.266918847591993    0.987679225465570  0.0000
  Ge     Ge        0.167241311306791    0.718853085922909    0.982561185207858  0.0000
  Ge     Ge        0.347542425191701    0.669982174943816    0.980056572652013  0.0000
  Ge     Ge        0.148119848955071    0.315870011880343    0.985006184018313  0.0000
  Ge     Ge        0.652693475783086    0.671652168810379    0.052942351090755  0.0000
  Ge     Ge        0.845362766973787    0.308825569091955    0.040378042195342  0.0000
  Si     Si        0.650001536314755    0.692521576307654    0.740195785304022  0.0000
  Si     Si        0.330916203976058    0.275664530316693    0.299285736632966  0.0000
  O1     O1        0.098243057983816    0.185416960091447    0.397915074514483  0.0000
  O1     O1        0.402050364281900    0.792984597366275    0.390783098639137  0.0000
  O1     O1        0.903846208980089    0.223091855479282    0.627313830342838  0.0000
  O3     O3        0.592756710557809    0.811770198796299    0.660781951315223  0.0000
  O1     O1        0.870236961628139    0.885424779741331    0.645818254264826  0.0000
  O1     O1        0.609937244685656    0.170591943931572    0.630623929389286  0.0000
  O1     O1        0.115632548166284    0.839398322820939    0.397782603280089  0.0000
  O3     O3        0.379682848982177    0.146162397663372    0.387495214359022  0.0000
  O1     O1        0.970592839506719    0.991267843731683    0.456014303762226  0.0000
  O1     O1        0.523272241116860    0.000167385646209    0.457231499079975  0.0000
  O1     O1        0.026974393434584    0.984252508716949    0.209071512436667  0.0000
  O1     O1        0.471823470518507    0.001149561170700    0.204429141006903  0.0000
  O1     O1        0.021304968669438    0.999194269165042    0.702980837368961  0.0000
  O1     O1        0.469345749200625    0.019210944084244    0.703239190818597  0.0000
  O1     O1        0.616400471511978    0.132031753413514    0.139387450892869  0.0000
  O1     O1        0.885107705028915    0.837122952598516    0.147061268168448  0.0000
  O1     O1        0.373880917901823    0.123696894097792    0.899836665718802  0.0000
  O1     O1        0.121983879799336    0.863532783222693    0.883990378479139  0.0000
  O1     O1        0.407000246151305    0.782008723597368    0.882363527708522  0.0000
  O1     O1        0.084232974140311    0.207755408816679    0.895773337941255  0.0000
  O1     O1        0.590145217308592    0.785491861746123    0.138920031775749  0.0000
  O1     O1        0.905392522060720    0.186300327156182    0.131907964340244  0.0000
  O1     O1        0.522117297204865    0.005966847345301    0.952245679367935  0.0000
  O1     O1        0.975274097677701    0.968242184329275    0.955049338012622  0.0000
  O1     O1        0.155817748957615    0.509382505540268    0.362738994301651  0.0000
  O3     O3        0.340964507402915    0.463794348647939    0.352334647984416  0.0000
  O1     O1        0.840049225158603    0.539114820147116    0.668249959711319  0.0000
  O3     O3        0.653613626828941    0.508310432503364    0.678632940016417  0.0000
  O3     O3        0.244155254378202    0.226632728274596    0.302941523435871  0.0000
  O1     O1        0.258708111707032    0.757878390857053    0.294680671069778  0.0000
  O1     O1        0.755035064692343    0.247494187603308    0.716687753629959  0.0000
  O3     O3        0.731190529463012    0.777917283665641    0.736910833919855  0.0000
  O1     O1        0.121058420614443    0.317362532129943    0.145987477680071  0.0000
  O1     O1        0.381017377460069    0.673174291794823    0.138825162934009  0.0000
  O1     O1        0.875189634809314    0.321103164321879    0.880854977498374  0.0000
  O3     O3        0.624380867646128    0.670651512841272    0.889687270386663  0.0000
  O1     O1        0.858028744479914    0.726351465660883    0.892576997039734  0.0000
  O1     O1        0.632327727827129    0.270239981141478    0.885485992208283  0.0000
  O1     O1        0.133738354362372    0.722914018830525    0.139503202049000  0.0000
  O3     O3        0.357498033481586    0.270679753790724    0.149172286538783  0.0000
  O1     O1        0.657893907627300    0.467614863770141    0.107730164668877  0.0000
  O1     O1        0.839612335598575    0.504548803617153    0.105147447383393  0.0000
  O1     O1        0.340620148814601    0.468110043770172    0.926361337187244  0.0000
  O1     O1        0.154208402776879    0.518677340253236    0.925534093809781  0.0000
  O1     O1        0.758653519937509    0.216654201893865    0.039021775636347  0.0000
  O1     O1        0.738268919177979    0.766653091861851    0.063356587621325  0.0000
  O1     O1        0.234064944184642    0.219239198214339    0.979692076230215  0.0000
  O1     O1        0.260592350535903    0.762167216331077    0.981947507966712  0.0000
