data_c00029.vasp
_audit_creation_method             Generated by GULP
_audit_author_name                 Salvador R. G. Balestra
_symmetry_space_group_name_H-M     'P 1             '
_symmetry_Int_Tables_number        1

loop_
_symmetry_equiv_pos_site_id
_symmetry_equiv_pos_as_xyz
_cell_length_a                       17.6234
_cell_length_b                        7.8814
_cell_length_c                       10.2901
_cell_angle_alpha                   90.4263
_cell_angle_beta                    90.9029
_cell_angle_gamma                   91.7743

loop_
_atom_site_label
_atom_site_type_symbol
_atom_site_fract_x
_atom_site_fract_y
_atom_site_fract_z
_atom_site_charge
  Ge     Ge        0.052090000000021    0.000000000000000    0.372269999999958  0.0000
  Ge     Ge        0.446047002181010    0.059324034626737    0.364399223632617  0.0000
  Ge     Ge        0.946142090245586    0.048129791861597    0.621750813391601  0.0000
  Ge     Ge        0.549361453183421    0.002442185794078    0.620979189159196  0.0000
  Ge     Ge        0.549047954754571    0.992866254983116    0.117138943695474  0.0000
  Ge     Ge        0.942473294912662    0.053766040278411    0.122309540635924  0.0000
  Ge     Ge        0.441125102766105    0.049702504362149    0.868400744373992  0.0000
  Ge     Ge        0.170958022522747    0.287240523853787    0.259504641419989  0.0000
  Ge     Ge        0.323396362169058    0.768489497305386    0.249917092603733  0.0000
  Ge     Ge        0.847190850932732    0.362968803721098    0.686743219618533  0.0000
  Ge     Ge        0.642395341879262    0.682131578289984    0.688374695229987  0.0000
  Ge     Ge        0.824543456988930    0.760498125564351    0.691968624501165  0.0000
  Ge     Ge        0.142259244342116    0.685542864699386    0.254819302427271  0.0000
  Ge     Ge        0.352009165236245    0.369197164027088    0.248810364952087  0.0000
  Ge     Ge        0.670323889210650    0.281029731863840    0.998732677090348  0.0000
  Ge     Ge        0.822230196759515    0.764112901742006    0.007190292892840  0.0000
  Ge     Ge        0.341412407495201    0.360010007766368    0.932531776795597  0.0000
  Ge     Ge        0.137665925103846    0.681156857049100    0.939167180578780  0.0000
  Ge     Ge        0.319072688960450    0.759311003744395    0.934725493157863  0.0000
  Ge     Ge        0.159977985501906    0.280870134047291    0.944726206554005  0.0000
  Ge     Ge        0.639998726815621    0.681275776886913    0.001369669174577  0.0000
  Ge     Ge        0.850731094880385    0.364414149764553    0.003809405155799  0.0000
  Si     Si        0.042246369941370    0.988318928324323    0.876778535201526  0.0000
  Si     Si        0.669209820707671    0.290259046505585    0.688743364804745  0.0000
  O1     O1        0.128271674431112    0.137148714789500    0.354829210190395  0.0000
  O1     O1        0.369670892343325    0.922430467891838    0.340409149551505  0.0000
  O1     O1        0.909481404271335    0.245488511772604    0.600807413829194  0.0000
  O1     O1        0.582886464619765    0.802431931137690    0.595523806447870  0.0000
  O1     O1        0.872785976331403    0.902417270212192    0.596998849779156  0.0000
  O3     O3        0.622842247630103    0.152489796191217    0.601999642940209  0.0000
  O1     O1        0.077381513183304    0.795637321676201    0.340834985456397  0.0000
  O1     O1        0.420290236357707    0.263227483872685    0.332449147342954  0.0000
  O1     O1        0.023522202250564    0.013274220125611    0.531463241873028  0.0000
  O1     O1        0.473135157466035    0.046462779496383    0.525709080873704  0.0000
  O1     O1        0.974593080752503    0.053653549867280    0.280233881946210  0.0000
  O1     O1        0.524158982447915    0.005651716417227    0.277607011991662  0.0000
  O3     O3        0.971454688411271    0.026874223424967    0.785671595759231  0.0000
  O1     O1        0.519136214810746    0.012207223760716    0.779778547303339  0.0000
  O1     O1        0.625134577553585    0.126841971219797    0.085131337644735  0.0000
  O1     O1        0.865930752739596    0.915848372593544    0.104162964053950  0.0000
  O1     O1        0.402896223545429    0.245348303832428    0.842715303526679  0.0000
  O3     O3        0.074290269532580    0.801512680274349    0.851439119763282  0.0000
  O1     O1        0.369296780321433    0.899357194856256    0.841614401310167  0.0000
  O3     O3        0.109043241825042    0.129771375694088    0.855238110630589  0.0000
  O1     O1        0.574411072645676    0.787113814036874    0.088674187086346  0.0000
  O1     O1        0.918069320756517    0.257958864940767    0.088637401352786  0.0000
  O1     O1        0.470187001335495    0.046732535542866    0.029595211955296  0.0000
  O3     O3        0.017072094559215    0.992554388818183    0.026971205767948  0.0000
  O1     O1        0.155818480286404    0.488434579891030    0.319117593372073  0.0000
  O1     O1        0.341398514291721    0.569737947306082    0.310451593448263  0.0000
  O1     O1        0.839900291994700    0.561870887166603    0.626649445549945  0.0000
  O3     O3        0.654138400777060    0.477622889296018    0.631823054487971  0.0000
  O1     O1        0.266620643761799    0.256789206294348    0.255854662911529  0.0000
  O1     O1        0.227450200216999    0.798590007619938    0.253085463367040  0.0000
  O3     O3        0.758596251404793    0.257924330633809    0.687018691574565  0.0000
  O1     O1        0.728772037869472    0.789618291473280    0.691970997324320  0.0000
  O1     O1        0.133070560633774    0.271822031962046    0.104431438121811  0.0000
  O1     O1        0.353708006272644    0.776332244007195    0.092019987910813  0.0000
  O1     O1        0.878168336025423    0.381433735814591    0.845153753604965  0.0000
  O1     O1        0.607863802160432    0.671749818057384    0.842743253178555  0.0000
  O1     O1        0.855523139594063    0.775467808898992    0.851373257961479  0.0000
  O3     O3        0.640633800223277    0.280155750537566    0.836849752604042  0.0000
  O1     O1        0.110349543792064    0.657823045153623    0.097474220135467  0.0000
  O1     O1        0.376284627978689    0.386652447853905    0.088735426154278  0.0000
  O1     O1        0.650891435938422    0.479579201017653    0.058850729725831  0.0000
  O1     O1        0.839533420549492    0.563938834654464    0.066017916530393  0.0000
  O1     O1        0.329381030560362    0.557901596431009    0.871280453759618  0.0000
  O1     O1        0.144137566364497    0.479035702588348    0.879437674224631  0.0000
  O1     O1        0.765779276772129    0.250405463335395    0.008164173092782  0.0000
  O1     O1        0.726065377034447    0.790621283786998    0.005898785274786  0.0000
  O1     O1        0.255581229576384    0.248674307907769    0.938911400046601  0.0000
  O1     O1        0.223446250779278    0.791620143224784    0.937149160596810  0.0000
