data_c00008.vasp
_audit_creation_method             Generated by GULP
_audit_author_name                 Salvador R. G. Balestra
_symmetry_space_group_name_H-M     'P 1             '
_symmetry_Int_Tables_number        1

loop_
_symmetry_equiv_pos_site_id
_symmetry_equiv_pos_as_xyz
_cell_length_a                       17.6799
_cell_length_b                        7.8452
_cell_length_c                       10.2620
_cell_angle_alpha                   88.7952
_cell_angle_beta                    90.1471
_cell_angle_gamma                   91.1200

loop_
_atom_site_label
_atom_site_type_symbol
_atom_site_fract_x
_atom_site_fract_y
_atom_site_fract_z
_atom_site_charge
  Ge     Ge        0.052090000000021    0.000000000000000    0.372269999999958  0.0000
  Ge     Ge        0.442155742864917    0.051791445293577    0.372081634128384  0.0000
  Ge     Ge        0.946727991121786    0.063532837526188    0.620802188233850  0.0000
  Ge     Ge        0.548883169407131    0.012157551374755    0.621504702066188  0.0000
  Ge     Ge        0.556481386300887    0.997592294932040    0.135526619347566  0.0000
  Ge     Ge        0.942191430775019    0.052974857843813    0.126923254127757  0.0000
  Ge     Ge        0.452105490337457    0.069670245569646    0.882126217562868  0.0000
  Ge     Ge        0.048219304836110    0.006137511859247    0.877332375115781  0.0000
  Ge     Ge        0.173276903522203    0.286136881874589    0.258905165211493  0.0000
  Ge     Ge        0.325967497303290    0.757584676327564    0.263894239735966  0.0000
  Ge     Ge        0.849878579929045    0.374600739902201    0.694032430384482  0.0000
  Ge     Ge        0.645360851604310    0.696201026356151    0.698729502200090  0.0000
  Ge     Ge        0.824911436378667    0.779115237772963    0.699200001198054  0.0000
  Ge     Ge        0.671637907640269    0.291603412342301    0.697432808514903  0.0000
  Ge     Ge        0.144286312846584    0.685151340540911    0.260835470052837  0.0000
  Ge     Ge        0.674855709535431    0.283151456901714    0.013991176151320  0.0000
  Ge     Ge        0.826828894926863    0.760202873133044    0.013485307035640  0.0000
  Ge     Ge        0.349907981375556    0.378013325555731    0.940947336519653  0.0000
  Ge     Ge        0.148979121380485    0.694746900968962    0.943075218533632  0.0000
  Ge     Ge        0.327604318955016    0.781377152645622    0.949815466289482  0.0000
  Ge     Ge        0.172737838777177    0.291968676971161    0.941689450915769  0.0000
  Ge     Ge        0.645331611198150    0.684175975250421    0.015343715831099  0.0000
  Si     Si        0.349644338775117    0.363798728595942    0.252936494498142  0.0000
  Si     Si        0.851537049185469    0.364005263539693    0.003829080855275  0.0000
  O1     O1        0.131056805964952    0.126838469833779    0.349101770534422  0.0000
  O1     O1        0.373466103474808    0.896500308426564    0.362590719406443  0.0000
  O1     O1        0.914163520737494    0.267792086089308    0.603250884330421  0.0000
  O1     O1        0.582711554464848    0.810048574333611    0.604920116943207  0.0000
  O1     O1        0.873369267535495    0.919327981650384    0.599113803948225  0.0000
  O1     O1        0.621636954281577    0.158799438865675    0.598185731602578  0.0000
  O1     O1        0.076648780166517    0.793861902347499    0.342882010250388  0.0000
  O3     O3        0.411943520713959    0.252925910691606    0.327577254071784  0.0000
  O1     O1        0.024720459392465    0.019779294041199    0.532522092996904  0.0000
  O1     O1        0.470084172328542    0.056319406533162    0.533520811769022  0.0000
  O1     O1        0.973616852305049    0.061567292228742    0.285547607615576  0.0000
  O1     O1        0.524609839815868    0.004482617345156    0.293275098934940  0.0000
  O1     O1        0.971570191084071    0.043919991437252    0.783820567891258  0.0000
  O1     O1        0.526111862675256    0.028770585964297    0.785230380941865  0.0000
  O1     O1        0.635243404183488    0.126898842635350    0.110968707826853  0.0000
  O1     O1        0.872652745137752    0.898300767028686    0.114897941574006  0.0000
  O1     O1        0.417647439857351    0.272685733574675    0.858962619722882  0.0000
  O1     O1        0.085776153206635    0.808388528954743    0.852330987352166  0.0000
  O1     O1        0.378671109914962    0.925350265339186    0.858555060958663  0.0000
  O1     O1        0.119263521287967    0.156848475616649    0.850649103424739  0.0000
  O1     O1        0.580531288073923    0.791265470356038    0.103721886210945  0.0000
  O3     O3        0.912178240580243    0.255668466898863    0.084014062448186  0.0000
  O1     O1        0.481642959004041    0.061734557124970    0.042169688919658  0.0000
  O1     O1        0.020400189764220    0.005048783945172    0.038481255500766  0.0000
  O1     O1        0.152786119379053    0.480771187451044    0.322348000582581  0.0000
  O3     O3        0.339946377518396    0.547637725311098    0.316784597557983  0.0000
  O1     O1        0.837995991832206    0.577546735783684    0.638201592019090  0.0000
  O1     O1        0.659153873814714    0.498222346707120    0.639974219422567  0.0000
  O3     O3        0.270379634949243    0.258701228950185    0.258114248880073  0.0000
  O1     O1        0.230571773950602    0.790841869174346    0.269306979311892  0.0000
  O1     O1        0.766916359435857    0.255806656630833    0.691837639116312  0.0000
  O1     O1        0.729608738831657    0.812600416153076    0.702131659710234  0.0000
  O1     O1        0.142160949144192    0.274615525780174    0.100792941933528  0.0000
  O1     O1        0.359435732374597    0.792402925559420    0.108812158136672  0.0000
  O3     O3        0.878983902740226    0.390223248913367    0.855512819241063  0.0000
  O1     O1        0.614211120214672    0.673796832923705    0.856863967994473  0.0000
  O1     O1        0.858684149706566    0.792006860958230    0.856961563001702  0.0000
  O1     O1        0.641307275452226    0.271347630252609    0.856980617248828  0.0000
  O1     O1        0.117978972790212    0.666919901173713    0.101053706984588  0.0000
  O3     O3        0.373788973221416    0.399239507123048    0.104450865320034  0.0000
  O1     O1        0.654668424321357    0.479650434169234    0.074795572189835  0.0000
  O3     O3        0.841644062842138    0.549568476464214    0.064101773418104  0.0000
  O1     O1        0.339704767816755    0.581598891366032    0.884765987230716  0.0000
  O1     O1        0.162799102617752    0.498158266618434    0.881613816649927  0.0000
  O3     O3        0.771984799838880    0.259793191407305    0.006837712176867  0.0000
  O1     O1        0.731341160863738    0.791174319578592    0.018199407460010  0.0000
  O1     O1        0.267930141518282    0.255818069272192    0.934115962569377  0.0000
  O1     O1        0.232212531381503    0.814276278566445    0.949870107805379  0.0000
