data_c00030.vasp
_audit_creation_method             Generated by GULP
_audit_author_name                 Salvador R. G. Balestra
_symmetry_space_group_name_H-M     'P 1             '
_symmetry_Int_Tables_number        1

loop_
_symmetry_equiv_pos_site_id
_symmetry_equiv_pos_as_xyz
_cell_length_a                       17.6866
_cell_length_b                        7.8552
_cell_length_c                       10.2377
_cell_angle_alpha                   89.3659
_cell_angle_beta                    90.4204
_cell_angle_gamma                   88.6836

loop_
_atom_site_label
_atom_site_type_symbol
_atom_site_fract_x
_atom_site_fract_y
_atom_site_fract_z
_atom_site_charge
  Ge     Ge        0.052090000000021    0.000000000000000    0.372269999999958  0.0000
  Ge     Ge        0.445940302963683    0.949167205591389    0.404730383545408  0.0000
  Ge     Ge        0.944493841344687    0.957544721975656    0.622201110294505  0.0000
  Ge     Ge        0.551709743326073    0.014023264673292    0.654526522114869  0.0000
  Ge     Ge        0.553751536497675    0.003307746104807    0.159145121749853  0.0000
  Ge     Ge        0.953642927288561    0.942828831546105    0.108862245249332  0.0000
  Ge     Ge        0.448388090737883    0.947115116637958    0.906989285241539  0.0000
  Ge     Ge        0.145006880280496    0.316709139126479    0.293763387847433  0.0000
  Ge     Ge        0.353087188280115    0.637416325351631    0.285514452368939  0.0000
  Ge     Ge        0.828687817923635    0.254763570658956    0.724593009288967  0.0000
  Ge     Ge        0.674734326694662    0.728732040590507    0.728815176812553  0.0000
  Ge     Ge        0.648004997810376    0.330341791068217    0.718229169806166  0.0000
  Ge     Ge        0.173250297645095    0.718318819827480    0.290849235643128  0.0000
  Ge     Ge        0.325132717147018    0.236243115527432    0.289383866801109  0.0000
  Ge     Ge        0.648334282769202    0.314397302156162    0.037094814691357  0.0000
  Ge     Ge        0.852730653953638    0.631967343486266    0.047993157053601  0.0000
  Ge     Ge        0.324669155964622    0.234536203705087    0.973926196778386  0.0000
  Ge     Ge        0.168434834567826    0.715679199500005    0.973037422645805  0.0000
  Ge     Ge        0.348757343033202    0.634668293262828    0.966713199914027  0.0000
  Ge     Ge        0.143244845588794    0.311197189036548    0.977981561708228  0.0000
  Ge     Ge        0.674716716641619    0.718136673306512    0.047020865988265  0.0000
  Ge     Ge        0.828200982587800    0.230160867035217    0.040158040454660  0.0000
  Si     Si        0.053593289990607    0.004054428169347    0.859654953544758  0.0000
  Si     Si        0.850794223363675    0.648106762484305    0.735951548020555  0.0000
  O1     O1        0.084109074128287    0.203246814206550    0.389386156770369  0.0000
  O1     O1        0.420644855192897    0.745029941064566    0.369948320130444  0.0000
  O1     O1        0.876894323905898    0.115710344108558    0.626389119023218  0.0000
  O1     O1        0.628637267756857    0.877974882225652    0.634500960776416  0.0000
  O3     O3        0.912077050916510    0.757816052567764    0.660314239650017  0.0000
  O1     O1        0.583110756914314    0.217102992738514    0.631025788793052  0.0000
  O1     O1        0.126657995565864    0.856990778648080    0.390778266712660  0.0000
  O1     O1        0.370023217556910    0.085687505603632    0.385149295219926  0.0000
  O1     O1        0.975570627132499    0.951885151981911    0.463083829277463  0.0000
  O1     O1        0.474448925861123    0.961091354480228    0.566083326885294  0.0000
  O1     O1        0.026733393588072    0.983766257895811    0.208590900691791  0.0000
  O1     O1        0.524320758978170    0.007249411762964    0.318740836688630  0.0000
  O3     O3        0.025338325673362    0.003033418274912    0.710258665948841  0.0000
  O1     O1        0.525161873308406    0.993572362652861    0.816710523685489  0.0000
  O1     O1        0.580986758485915    0.206048753212050    0.119773035800482  0.0000
  O1     O1        0.920786531586178    0.739092202423977    0.129525424332173  0.0000
  O1     O1        0.374801006679956    0.092385810700850    0.882705677890161  0.0000
  O3     O3        0.123134736649061    0.870812903673696    0.879138848092369  0.0000
  O1     O1        0.412583834017632    0.748413996386889    0.878882022557462  0.0000
  O3     O3        0.078484564117636    0.194813695361326    0.892057305065958  0.0000
  O1     O1        0.628134095101135    0.860901755960726    0.143470011544082  0.0000
  O1     O1        0.878768900513868    0.083804730238787    0.130624511853319  0.0000
  O1     O1        0.476876012905897    0.945911675773721    0.068791074932727  0.0000
  O3     O3        0.982695702250677    0.952108828508894    0.947142493361810  0.0000
  O1     O1        0.158935086726931    0.515382572029181    0.352093934017948  0.0000
  O1     O1        0.341064681322890    0.436996958769840    0.349236656061541  0.0000
  O3     O3        0.840494199584954    0.464340194759824    0.671288666891585  0.0000
  O1     O1        0.656207087332862    0.533579957049316    0.661337235900511  0.0000
  O1     O1        0.229789709693893    0.203826673794498    0.287106992718214  0.0000
  O1     O1        0.268653359869259    0.752017702328559    0.289617900654031  0.0000
  O1     O1        0.733478163746906    0.220535485754959    0.716418439589978  0.0000
  O3     O3        0.771707294098761    0.755418523491895    0.732336366046116  0.0000
  O1     O1        0.112034493959600    0.332854488671716    0.135116363776612  0.0000
  O1     O1        0.379447220053625    0.612741172149689    0.126260169615592  0.0000
  O1     O1        0.859783070206015    0.220412175270380    0.881418851963441  0.0000
  O1     O1        0.643650233819323    0.739369348369448    0.887626364215919  0.0000
  O3     O3        0.876134374047457    0.611457247228590    0.884095164368154  0.0000
  O1     O1        0.619572395868563    0.343383715168495    0.878131749129629  0.0000
  O1     O1        0.139255071256992    0.729388845673100    0.132249613307354  0.0000
  O1     O1        0.358418213096324    0.221678993140692    0.132283779050173  0.0000
  O1     O1        0.660649008898393    0.512514367372484    0.101314983599482  0.0000
  O1     O1        0.842524193484631    0.429637808211505    0.105125171598038  0.0000
  O1     O1        0.337452122243548    0.435109291777224    0.907472184752945  0.0000
  O1     O1        0.151665096828865    0.513905176494467    0.915502426042884  0.0000
  O1     O1        0.732555322991600    0.198410500379752    0.040982072363182  0.0000
  O1     O1        0.770109084974755    0.750912891849619    0.054956482047424  0.0000
  O1     O1        0.229027351920484    0.203426892500762    0.976051979923101  0.0000
  O1     O1        0.263811368789833    0.747091741821741    0.967873177841937  0.0000
