data_c00041.vasp
_audit_creation_method             Generated by GULP
_audit_author_name                 Salvador R. G. Balestra
_symmetry_space_group_name_H-M     'P 1             '
_symmetry_Int_Tables_number        1

loop_
_symmetry_equiv_pos_site_id
_symmetry_equiv_pos_as_xyz
_cell_length_a                       17.8435
_cell_length_b                        7.8913
_cell_length_c                       10.3404
_cell_angle_alpha                   89.3684
_cell_angle_beta                    90.4129
_cell_angle_gamma                   90.5125

loop_
_atom_site_label
_atom_site_type_symbol
_atom_site_fract_x
_atom_site_fract_y
_atom_site_fract_z
_atom_site_charge
  Ge     Ge        0.052090000000021    0.000000000000000    0.372269999999958  0.0000
  Ge     Ge        0.449326711330204    0.035967740604211    0.414676798880733  0.0000
  Ge     Ge        0.942924825319631    0.015653413325985    0.617891725911852  0.0000
  Ge     Ge        0.556476723608843    0.028958007632546    0.164241920177635  0.0000
  Ge     Ge        0.953148289851289    0.013005854177481    0.111009749734805  0.0000
  Ge     Ge        0.451176846053259    0.034104525045225    0.909862552127421  0.0000
  Ge     Ge        0.057467490733477    0.004774382489719    0.859933576954607  0.0000
  Ge     Ge        0.171810260037151    0.283919263345961    0.298396885270288  0.0000
  Ge     Ge        0.330009924805180    0.752336828699186    0.296272345139964  0.0000
  Ge     Ge        0.831264537536526    0.309766848661079    0.730049228191753  0.0000
  Ge     Ge        0.665253846244173    0.748121772399703    0.734283430228946  0.0000
  Ge     Ge        0.650069681548189    0.345740765847011    0.730449947108124  0.0000
  Ge     Ge        0.150816900132046    0.689466684298095    0.295362707306611  0.0000
  Ge     Ge        0.351465735238331    0.346029264737935    0.301829405625759  0.0000
  Ge     Ge        0.652741456917118    0.343292870726117    0.046686810795729  0.0000
  Ge     Ge        0.850675591992319    0.699284556286972    0.040444927560773  0.0000
  Ge     Ge        0.354086555195123    0.348353083921290    0.987879839105336  0.0000
  Ge     Ge        0.150788657732716    0.690653747552978    0.980467049959998  0.0000
  Ge     Ge        0.330678180170872    0.752461450426577    0.981810171232201  0.0000
  Ge     Ge        0.174448234878516    0.284649088614319    0.984166285956149  0.0000
  Ge     Ge        0.672676699283580    0.749279179838811    0.047691879610895  0.0000
  Ge     Ge        0.831780626328038    0.292559322581583    0.043481927821334  0.0000
  Si     Si        0.553083873479435    0.033956411721331    0.662039863769915  0.0000
  Si     Si        0.842911955176533    0.709021929933095    0.733429413850742  0.0000
  O1     O1        0.121267813094656    0.150360316980086    0.396652614504572  0.0000
  O1     O1        0.378473788365353    0.891758162629535    0.391183084538354  0.0000
  O1     O1        0.884407806577719    0.184649313406142    0.633661088463714  0.0000
  O3     O3        0.616652575599727    0.893150914290963    0.640785751282104  0.0000
  O3     O3        0.897033029637841    0.825869639613598    0.647695515840571  0.0000
  O3     O3        0.589812701919282    0.218980262057508    0.640830525750597  0.0000
  O1     O1        0.090108276788960    0.801799307186105    0.388504223186513  0.0000
  O1     O1        0.414617632215679    0.236113802471877    0.394670583809609  0.0000
  O1     O1        0.972339052499435    0.018669952356210    0.459569357302557  0.0000
  O3     O3        0.480706708250733    0.010241570264964    0.573217593526084  0.0000
  O1     O1        0.027426852940609    0.033137770807657    0.211666136269848  0.0000
  O1     O1        0.525770808688890    0.004800412203618    0.319813278525138  0.0000
  O1     O1        0.025422692432635    0.026997783266664    0.703672599024068  0.0000
  O3     O3        0.526947660386199    0.012227427622613    0.810673243748643  0.0000
  O1     O1        0.589262034780243    0.231763799554121    0.136557953254200  0.0000
  O1     O1        0.916035336298444    0.811084836656966    0.124962502886247  0.0000
  O1     O1        0.416040362148040    0.235411103337691    0.897954672545003  0.0000
  O1     O1        0.087454529022025    0.801038861469170    0.888772568280923  0.0000
  O1     O1        0.379562980956821    0.890204774881358    0.885030179041890  0.0000
  O1     O1        0.130960699660182    0.142678638414810    0.885105572817420  0.0000
  O1     O1        0.627546720332872    0.887183755731146    0.144307850525344  0.0000
  O1     O1        0.883045530439719    0.157614443979346    0.137332418215907  0.0000
  O1     O1        0.481792289539973    0.989777154126595    0.064488861607218  0.0000
  O1     O1        0.982739817782965    0.051205523966801    0.955328733514932  0.0000
  O1     O1        0.160282066414119    0.487882952188588    0.353246849360465  0.0000
  O1     O1        0.341412868173348    0.548595037896798    0.355465918896597  0.0000
  O3     O3        0.837498802103634    0.520120941268586    0.677939001192583  0.0000
  O1     O1        0.650158001366770    0.549642444752540    0.671843270222679  0.0000
  O1     O1        0.266068307127507    0.242039977986124    0.303322290761077  0.0000
  O1     O1        0.235994039012748    0.794867887082748    0.295782435650002  0.0000
  O1     O1        0.737802549692873    0.258204493581861    0.723441304006189  0.0000
  O3     O3        0.760625740932233    0.791907478077614    0.734488676081744  0.0000
  O1     O1        0.141602974953117    0.272585225030284    0.139886687756504  0.0000
  O1     O1        0.361404842965725    0.762723112491983    0.140003264217248  0.0000
  O1     O1        0.862252559404844    0.286039952893887    0.885700446684493  0.0000
  O1     O1        0.637333755244959    0.754738715601512    0.892394095915071  0.0000
  O3     O3        0.876139073909097    0.698263774861390    0.878105795313872  0.0000
  O1     O1        0.621883018269238    0.351862771655142    0.888650404889556  0.0000
  O1     O1        0.119542590756282    0.683969693188756    0.137439375581056  0.0000
  O1     O1        0.384878829638028    0.351749709091521    0.146075655301859  0.0000
  O1     O1        0.662745525256792    0.544187315004542    0.104936934277234  0.0000
  O1     O1        0.843660199831444    0.497063426996737    0.098090786612052  0.0000
  O1     O1        0.344763577907628    0.548979577102950    0.927766515825614  0.0000
  O1     O1        0.160338007417969    0.487998064029075    0.925976111251408  0.0000
  O1     O1        0.738194762152185    0.243289830304253    0.047848136179799  0.0000
  O1     O1        0.766125881720866    0.800293481515567    0.047584737650699  0.0000
  O1     O1        0.268716818824582    0.245206202305359    0.988095516622140  0.0000
  O1     O1        0.236553583220852    0.792889865375937    0.977174861077791  0.0000
