data_c00023.vasp
_audit_creation_method             Generated by GULP
_audit_author_name                 Salvador R. G. Balestra
_symmetry_space_group_name_H-M     'P 1             '
_symmetry_Int_Tables_number        1

loop_
_symmetry_equiv_pos_site_id
_symmetry_equiv_pos_as_xyz
_cell_length_a                       17.5776
_cell_length_b                        7.8267
_cell_length_c                       10.5737
_cell_angle_alpha                   88.8596
_cell_angle_beta                    91.4128
_cell_angle_gamma                   88.8473

loop_
_atom_site_label
_atom_site_type_symbol
_atom_site_fract_x
_atom_site_fract_y
_atom_site_fract_z
_atom_site_charge
  Ge     Ge        0.052090000000021    0.000000000000000    0.372269999999958  0.0000
  Ge     Ge        0.448864572133397    0.973847527691905    0.383670818942381  0.0000
  Ge     Ge        0.949253409868697    0.014795462942769    0.625574409845327  0.0000
  Ge     Ge        0.541637056709853    0.992230636337202    0.647506281579961  0.0000
  Ge     Ge        0.556811587203486    0.993143447689314    0.143487917319083  0.0000
  Ge     Ge        0.947638543380233    0.009600909827818    0.115065842193647  0.0000
  Ge     Ge        0.439218785629136    0.017008986586657    0.906682123363530  0.0000
  Ge     Ge        0.057642785340453    0.021641516969754    0.872788262902358  0.0000
  Ge     Ge        0.152954636810773    0.309607162432074    0.276894134002249  0.0000
  Ge     Ge        0.354074509686261    0.659673641394213    0.293009634847529  0.0000
  Ge     Ge        0.848356619847358    0.327345873938697    0.735296411038527  0.0000
  Ge     Ge        0.645223137032034    0.673877079466783    0.718898760460936  0.0000
  Ge     Ge        0.824290910053233    0.736960031536437    0.727095355980293  0.0000
  Ge     Ge        0.667305590112277    0.263903050493896    0.730811750456528  0.0000
  Ge     Ge        0.168712146294856    0.714818709450452    0.297929642975206  0.0000
  Ge     Ge        0.669894480296570    0.279116845458325    0.035416788264403  0.0000
  Ge     Ge        0.822182204295153    0.742067480088148    0.035407950360694  0.0000
  Ge     Ge        0.324920446229600    0.318555973226833    0.961008176290931  0.0000
  Ge     Ge        0.145312132517695    0.348224416593820    0.971006669274693  0.0000
  Ge     Ge        0.852516565819571    0.339101104145880    0.042575758673125  0.0000
  Si     Si        0.330327934730913    0.266048015728019    0.264636918408538  0.0000
  Si     Si        0.166853853165532    0.740935233190368    0.002926927288132  0.0000
  Si     Si        0.347506452054500    0.699344546872923    0.997680599831203  0.0000
  Si     Si        0.644769696557822    0.679008517342087    0.021770346338395  0.0000
  O1     O1        0.095062925857270    0.194022856619685    0.371473625336056  0.0000
  O1     O1        0.415511740506540    0.768218966319415    0.387155225737207  0.0000
  O1     O1        0.914756691375411    0.216897211613484    0.652366365431036  0.0000
  O1     O1        0.577860735150978    0.787730677081955    0.631949937705429  0.0000
  O1     O1        0.877367402546049    0.871473394951008    0.638891162294973  0.0000
  O1     O1        0.615294580781909    0.133099642905379    0.636839147382432  0.0000
  O1     O1        0.122502504591452    0.846198258371393    0.398841176469187  0.0000
  O3     O3        0.376023465570713    0.105311961688046    0.324592760649781  0.0000
  O1     O1        0.978541967578563    0.998972311403772    0.472765924945125  0.0000
  O1     O1        0.471955240921186    0.032295110652385    0.535472032073035  0.0000
  O1     O1        0.014508996130941    0.951158865788204    0.225231743094912  0.0000
  O1     O1        0.530111099949137    0.982221135423334    0.298148765585471  0.0000
  O1     O1        0.027908298161714    0.975059223791443    0.722034921282543  0.0000
  O1     O1        0.508223792336362    0.006558163221035    0.798363896353810  0.0000
  O1     O1        0.627098492662519    0.140601243668107    0.136699844951846  0.0000
  O1     O1        0.866662835090814    0.888642699625742    0.124820201016671  0.0000
  O1     O1        0.376309147494731    0.182712305032313    0.871646601054424  0.0000
  O3     O3        0.137332875161709    0.891361316797633    0.909754560014587  0.0000
  O3     O3        0.385286707265250    0.832655450591139    0.905100482936990  0.0000
  O1     O1        0.082612466894687    0.232696966648054    0.882050915656745  0.0000
  O3     O3        0.582591674521292    0.790392108174986    0.093444184675476  0.0000
  O1     O1        0.918252768255957    0.219561366388857    0.130368171448803  0.0000
  O1     O1        0.479432022548275    0.058733268723523    0.051880785961322  0.0000
  O1     O1        0.983106959817847    0.975400446778757    0.967186935920374  0.0000
  O1     O1        0.128085051685417    0.519137604407740    0.297228260374371  0.0000
  O3     O3        0.374093458589151    0.441703212417266    0.291655771390418  0.0000
  O1     O1        0.834636776224122    0.530174027888537    0.675239724435537  0.0000
  O1     O1        0.655375217959229    0.469837146955217    0.669630340584551  0.0000
  O3     O3        0.247310261717014    0.277213590220826    0.325006413224852  0.0000
  O1     O1        0.263097976121132    0.692932181758153    0.341144032886963  0.0000
  O1     O1        0.763471279540094    0.219403580144908    0.732713253216564  0.0000
  O1     O1        0.728669023604012    0.784829148620648    0.713165308339878  0.0000
  O1     O1        0.139308738343263    0.258833638579081    0.120854325926936  0.0000
  O3     O3        0.368902799249529    0.744042271377838    0.141687738236473  0.0000
  O1     O1        0.881937289539769    0.340884783363188    0.888455785955230  0.0000
  O3     O3        0.619068231445460    0.660856461060691    0.876477627196715  0.0000
  O1     O1        0.853200279898404    0.748514062704696    0.882697515225437  0.0000
  O1     O1        0.635823338138417    0.249812225133417    0.883946644312048  0.0000
  O3     O3        0.160549207725093    0.803645149923981    0.145661583526493  0.0000
  O3     O3        0.316488509429729    0.243439796256616    0.115528101537575  0.0000
  O3     O3        0.654834014716695    0.489566536534138    0.081863918445450  0.0000
  O1     O1        0.843339289579211    0.540773903637850    0.098192278176694  0.0000
  O3     O3        0.373711228211115    0.508906153410808    0.963311216317130  0.0000
  O3     O3        0.121685656281642    0.565478849316480    0.980423885615111  0.0000
  O1     O1        0.765800995552174    0.240197842144754    0.040202511210019  0.0000
  O3     O3        0.724588114055922    0.777296466984512    0.031282022154106  0.0000
  O1     O1        0.232981512484490    0.328602965385937    0.904628523521853  0.0000
  O2     O2        0.255432152967211    0.689172538397993    0.983104463120649  0.0000
