data_c00064.vasp
_audit_creation_method             Generated by GULP
_audit_author_name                 Salvador R. G. Balestra
_symmetry_space_group_name_H-M     'P 1             '
_symmetry_Int_Tables_number        1

loop_
_symmetry_equiv_pos_site_id
_symmetry_equiv_pos_as_xyz
_cell_length_a                       17.7880
_cell_length_b                        7.8483
_cell_length_c                       10.3671
_cell_angle_alpha                   87.4489
_cell_angle_beta                    91.0903
_cell_angle_gamma                   89.1314

loop_
_atom_site_label
_atom_site_type_symbol
_atom_site_fract_x
_atom_site_fract_y
_atom_site_fract_z
_atom_site_charge
  Ge     Ge        0.052090000000021    0.000000000000000    0.372269999999958  0.0000
  Ge     Ge        0.449068098718370    0.027146827680542    0.393325276764168  0.0000
  Ge     Ge        0.944698983097295    0.017578359086203    0.620348207630387  0.0000
  Ge     Ge        0.539669768790451    0.074209953597282    0.660037546643812  0.0000
  Ge     Ge        0.564380069887483    0.025121282141502    0.166735182591976  0.0000
  Ge     Ge        0.947808950462187    0.993111699668371    0.114803501956097  0.0000
  Ge     Ge        0.444581498922739    0.044419200281302    0.933245241845005  0.0000
  Ge     Ge        0.054762796853824    0.022603843479776    0.870997136341630  0.0000
  Ge     Ge        0.173534903688705    0.276494747142045    0.297503731000786  0.0000
  Ge     Ge        0.336250047809620    0.727356373227893    0.303667701152644  0.0000
  Ge     Ge        0.823125294969113    0.301155984949660    0.728669754883172  0.0000
  Ge     Ge        0.663609754736925    0.781747737144457    0.738196353760291  0.0000
  Ge     Ge        0.842619645047165    0.708327171288458    0.732938704516883  0.0000
  Ge     Ge        0.645960550396728    0.372349623840079    0.730506259828320  0.0000
  Ge     Ge        0.154398890787618    0.690138894109271    0.301538574061468  0.0000
  Ge     Ge        0.854440421040867    0.673503146224962    0.045858936557288  0.0000
  Ge     Ge        0.327260943642408    0.754521230927808    0.985027319227638  0.0000
  Ge     Ge        0.170970843554644    0.302320840302298    0.987362991282096  0.0000
  Ge     Ge        0.673119762405527    0.742604741613984    0.048715257521489  0.0000
  Ge     Ge        0.824369713965572    0.275218343743674    0.044309247069896  0.0000
  Si     Si        0.342925252328401    0.338993592366416    0.287910446548625  0.0000
  Si     Si        0.648229628874262    0.345436347066536    0.039591831168560  0.0000
  Si     Si        0.339334161906850    0.367639280651599    0.983556867376993  0.0000
  Si     Si        0.150793256553773    0.710871960295565    0.995479128745187  0.0000
  O1     O1        0.124529483397954    0.139044863663394    0.394623509898908  0.0000
  O1     O1        0.392861142691519    0.853324681236353    0.392832538716494  0.0000
  O1     O1        0.877358818271937    0.173329875253916    0.637735466202128  0.0000
  O1     O1        0.608602100435393    0.919685704255536    0.644054284031198  0.0000
  O1     O1        0.905696163673849    0.821022811224951    0.643140096974890  0.0000
  O1     O1        0.579313682322090    0.271837502113298    0.642856980394224  0.0000
  O1     O1        0.090549055246968    0.797348333530262    0.390046613505897  0.0000
  O3     O3        0.407605590566122    0.198825233696310    0.304897832443665  0.0000
  O1     O1        0.975538505882021    0.030572646096559    0.463923932389851  0.0000
  O1     O1        0.465956176266661    0.063951940224267    0.553033668347546  0.0000
  O1     O1        0.019894792190648    0.038128414296546    0.215095750399580  0.0000
  O1     O1        0.535252158407383    0.009278191460420    0.323780608037481  0.0000
  O1     O1        0.024817048446268    0.037116815750325    0.712850655227186  0.0000
  O1     O1        0.509104701814703    0.049369433167571    0.815689193439433  0.0000
  O3     O3        0.589946194745363    0.230989672026421    0.119895281377117  0.0000
  O1     O1        0.919556909547510    0.784543850812733    0.131296926204626  0.0000
  O3     O3        0.408217819582424    0.247897907697201    0.953846155067254  0.0000
  O3     O3        0.090516716986032    0.818671692426758    0.908995576745460  0.0000
  O1     O1        0.372589746143442    0.909528473518567    0.898266892808607  0.0000
  O1     O1        0.119011816852229    0.181260882433867    0.887854783968450  0.0000
  O1     O1        0.634866166640485    0.876692896652823    0.155644669759354  0.0000
  O1     O1        0.868324934547323    0.117817971720553    0.135157337901386  0.0000
  O1     O1        0.487928299082958    0.970651289822252    0.074203007653634  0.0000
  O1     O1        0.976167724645265    0.048021441516819    0.960544637319222  0.0000
  O1     O1        0.136642796362404    0.477659047386204    0.311792974504915  0.0000
  O3     O3        0.369073586121336    0.518926906491445    0.337295658369358  0.0000
  O1     O1        0.829573822110868    0.511020037110316    0.673458185634377  0.0000
  O1     O1        0.653667930077324    0.579992932485830    0.680057206185981  0.0000
  O3     O3        0.266856638536686    0.273029441088727    0.353065265034637  0.0000
  O1     O1        0.244646711089661    0.733316633677297    0.351239509881389  0.0000
  O1     O1        0.728753258122778    0.257707661639696    0.719614739759982  0.0000
  O1     O1        0.758436160414913    0.821337551896647    0.734187815744866  0.0000
  O1     O1        0.167308237427934    0.213003102498036    0.140876808007321  0.0000
  O1     O1        0.342188198680311    0.795258465443954    0.144919870463703  0.0000
  O1     O1        0.852852743834411    0.279217379442413    0.886675875554224  0.0000
  O1     O1        0.635818765244943    0.786831260575549    0.896623634408333  0.0000
  O1     O1        0.879857193630742    0.681312771278416    0.886689170834661  0.0000
  O3     O3        0.620533253282749    0.370080761853687    0.892041950196328  0.0000
  O3     O3        0.145068758029488    0.767255705313778    0.142175568516481  0.0000
  O2     O2        0.317355440037510    0.380648717123851    0.136648132462312  0.0000
  O3     O3        0.657271977682945    0.530649947277598    0.097371426190922  0.0000
  O1     O1        0.847355502014050    0.469026450097481    0.105921760902817  0.0000
  O3     O3        0.361703652368643    0.557966715272409    0.940210106685135  0.0000
  O3     O3        0.135905410246684    0.509838062793037    0.989909564767806  0.0000
  O3     O3        0.728350911247967    0.246202073434586    0.045355819954325  0.0000
  O1     O1        0.767647640851163    0.773924196257217    0.046425174341630  0.0000
  O3     O3        0.261129473037473    0.305391193880593    0.923663960660152  0.0000
  O3     O3        0.233093323986077    0.756402540610055    0.944191536307475  0.0000
