data_c00007.vasp
_audit_creation_method             Generated by GULP
_audit_author_name                 Salvador R. G. Balestra
_symmetry_space_group_name_H-M     'P 1             '
_symmetry_Int_Tables_number        1

loop_
_symmetry_equiv_pos_site_id
_symmetry_equiv_pos_as_xyz
_cell_length_a                       17.5099
_cell_length_b                        7.8486
_cell_length_c                       10.4023
_cell_angle_alpha                   90.8878
_cell_angle_beta                    89.7714
_cell_angle_gamma                   87.9207

loop_
_atom_site_label
_atom_site_type_symbol
_atom_site_fract_x
_atom_site_fract_y
_atom_site_fract_z
_atom_site_charge
  Ge     Ge        0.052090000000021    0.000000000000000    0.372269999999958  0.0000
  Ge     Ge        0.453731999571434    0.939412393070329    0.375231521644235  0.0000
  Ge     Ge        0.957934077286283    0.928855424374206    0.631013622573081  0.0000
  Ge     Ge        0.555623202892811    0.991227235560935    0.628964916967987  0.0000
  Ge     Ge        0.552059730563554    0.006729792178624    0.117270546228084  0.0000
  Ge     Ge        0.954090146127580    0.949895247428110    0.110100848779027  0.0000
  Ge     Ge        0.444796010489215    0.936263914117265    0.869827483390563  0.0000
  Ge     Ge        0.069769023936370    0.983153345882749    0.868381326382574  0.0000
  Ge     Ge        0.150635419008815    0.301279643922284    0.291464576051768  0.0000
  Ge     Ge        0.356882830421924    0.629375849833762    0.295797299763636  0.0000
  Ge     Ge        0.831632692986595    0.222151952390920    0.745695678350359  0.0000
  Ge     Ge        0.679364889415153    0.702364300825460    0.737163138790306  0.0000
  Ge     Ge        0.863499457823887    0.620140139020804    0.736697119856542  0.0000
  Ge     Ge        0.650359284788193    0.302705544827784    0.743413057901556  0.0000
  Ge     Ge        0.175701357755474    0.711335532483025    0.288160328602522  0.0000
  Ge     Ge        0.331157867008445    0.223340313554859    0.294053687740333  0.0000
  Ge     Ge        0.652996296480912    0.317337712078039    0.059857988957568  0.0000
  Ge     Ge        0.860011914830642    0.628496450405683    0.046363695902832  0.0000
  Ge     Ge        0.358681779705624    0.615209671229326    0.985855642204764  0.0000
  Ge     Ge        0.676891370298307    0.714855635825823    0.047597198987599  0.0000
  Si     Si        0.334665159406730    0.226368979687954    0.991465114914037  0.0000
  Si     Si        0.175703368793980    0.686669820068334    0.986300640702727  0.0000
  Si     Si        0.154963974123452    0.297797182214821    0.991537627838539  0.0000
  Si     Si        0.831140062334166    0.240379626830931    0.054387437808975  0.0000
  O1     O1        0.087575609848666    0.200509861026311    0.387805825953137  0.0000
  O1     O1        0.419156824768940    0.738925124942681    0.390512515827173  0.0000
  O1     O1        0.880511817750254    0.057104058816893    0.673196942626075  0.0000
  O1     O1        0.631939265930049    0.852229034718103    0.647063796176059  0.0000
  O1     O1        0.930841010055904    0.723029282287976    0.649140883034206  0.0000
  O1     O1        0.581239446453303    0.195230432163441    0.663572416002335  0.0000
  O1     O1        0.124620158811046    0.846883566733463    0.387332778440148  0.0000
  O1     O1        0.380232294507512    0.089923992993431    0.393958529114980  0.0000
  O1     O1        0.977591046180701    0.964228873075345    0.471010772033527  0.0000
  O1     O1        0.530005059642265    0.977725160295517    0.469004104410213  0.0000
  O1     O1        0.025618181700773    0.986906503298188    0.212875707948736  0.0000
  O1     O1        0.479222224115318    0.960626747533659    0.215242634589443  0.0000
  O1     O1        0.040381830531176    0.976690243664104    0.711167446972889  0.0000
  O1     O1        0.474261859774342    0.943530198113204    0.712831223123171  0.0000
  O1     O1        0.587395150379801    0.206555851365252    0.142963652529315  0.0000
  O1     O1        0.919500715415889    0.750537753628590    0.135752800479185  0.0000
  O3     O3        0.366036622750006    0.072050208407161    0.902820792488874  0.0000
  O3     O3        0.137215844911768    0.819906306849793    0.890010339436060  0.0000
  O1     O1        0.417154576463710    0.730596130866928    0.892841109055180  0.0000
  O3     O3        0.108830326141685    0.181088237513159    0.895100493420838  0.0000
  O1     O1        0.629144667855679    0.866583024329312    0.137178276386528  0.0000
  O3     O3        0.879210404697920    0.100410410229606    0.131852769399404  0.0000
  O1     O1        0.521475696934775    0.991772922611363    0.959761095425423  0.0000
  O1     O1        0.987984656334203    0.959229628607261    0.954571514390584  0.0000
  O1     O1        0.161675254840113    0.506202582002613    0.339154543468945  0.0000
  O1     O1        0.343723450513430    0.429390791207278    0.349341348677592  0.0000
  O1     O1        0.852473101769516    0.415662748256316    0.680192439822403  0.0000
  O1     O1        0.662004090100615    0.500033181945051    0.679723017573168  0.0000
  O1     O1        0.235984611167469    0.185367580492704    0.298628972329754  0.0000
  O1     O1        0.271185149969031    0.746029864224826    0.294198764601346  0.0000
  O1     O1        0.736085364343801    0.187693011207204    0.733320730005169  0.0000
  O1     O1        0.776002371540605    0.728531441514177    0.732571429932717  0.0000
  O3     O3        0.118488765430276    0.293761064620001    0.132555537602794  0.0000
  O1     O1        0.391290279148594    0.620884494844613    0.140268262155157  0.0000
  O3     O3        0.857228512360556    0.238914247032669    0.905792872161983  0.0000
  O1     O1        0.644227424556973    0.721225949437906    0.891346474880795  0.0000
  O1     O1        0.895288763462742    0.615532654552734    0.892513236472058  0.0000
  O1     O1        0.625163672490838    0.327320676000647    0.901854626047540  0.0000
  O3     O3        0.144341889908399    0.727105275089468    0.129440456920646  0.0000
  O3     O3        0.366016546097574    0.208254924490567    0.136135040417765  0.0000
  O1     O1        0.659723506884461    0.520175514753804    0.116327578677149  0.0000
  O3     O3        0.847232422255463    0.429780083907446    0.110476777492243  0.0000
  O3     O3        0.360252088800306    0.404247202216701    0.932920793189851  0.0000
  O2     O2        0.154109268873483    0.493601429774537    0.943830809317860  0.0000
  O3     O3        0.741453234369940    0.208035963776251    0.063827066780908  0.0000
  O1     O1        0.773181684102707    0.738270980106817    0.039922117256608  0.0000
  O2     O2        0.242602426517780    0.228103027891966    0.003129364262374  0.0000
  O3     O3        0.266427445488133    0.701430962954562    0.984126811700280  0.0000
