data_c00001.vasp
_audit_creation_method             Generated by GULP
_audit_author_name                 Salvador R. G. Balestra
_symmetry_space_group_name_H-M     'P 1             '
_symmetry_Int_Tables_number        1

loop_
_symmetry_equiv_pos_site_id
_symmetry_equiv_pos_as_xyz
_cell_length_a                       17.8065
_cell_length_b                        7.8193
_cell_length_c                       10.5243
_cell_angle_alpha                   89.2511
_cell_angle_beta                    90.0002
_cell_angle_gamma                   89.9976

loop_
_atom_site_label
_atom_site_type_symbol
_atom_site_fract_x
_atom_site_fract_y
_atom_site_fract_z
_atom_site_charge
  Ge     Ge        0.052090000000021    0.000000000000000    0.372269999999958  0.0000
  Ge     Ge        0.454516331354161    0.958434452554130    0.336493654370541  0.0000
  Ge     Ge        0.954552731654001    0.003094248080666    0.631601311052320  0.0000
  Ge     Ge        0.552053927762164    0.961649905080504    0.595821332441701  0.0000
  Ge     Ge        0.556240241569444    0.964027375412556    0.077711921267986  0.0000
  Ge     Ge        0.942996517783190    0.993182068830965    0.129842481708772  0.0000
  Ge     Ge        0.442968122964241    0.968395828191310    0.838283138195512  0.0000
  Ge     Ge        0.056271115343609    0.997753816110380    0.890389166046822  0.0000
  Ge     Ge        0.154056277143724    0.308219291289130    0.261200675562866  0.0000
  Ge     Ge        0.351449005685629    0.651125181905291    0.260569059852095  0.0000
  Ge     Ge        0.851421308137560    0.310315854166681    0.707574688222167  0.0000
  Ge     Ge        0.654093047245311    0.653499291067830    0.706845381559284  0.0000
  Ge     Ge        0.831322756292399    0.722796841131786    0.705516507339476  0.0000
  Ge     Ge        0.674255099385469    0.243683090259919    0.707876657794351  0.0000
  Ge     Ge        0.174295430347911    0.717980332703669    0.260248956219013  0.0000
  Ge     Ge        0.331274103302179    0.238711129067019    0.262563679361300  0.0000
  Ge     Ge        0.675091232457109    0.252535944794683    0.015545541329127  0.0000
  Ge     Ge        0.830054275771447    0.706474902790651    0.012338261323364  0.0000
  Ge     Ge        0.330020904065125    0.255112744675412    0.955734382847887  0.0000
  Ge     Ge        0.175133930177035    0.709237297912082    0.952575168703701  0.0000
  Si     Si        0.351751914268204    0.655379830490493    0.956820193584403  0.0000
  Si     Si        0.153601951408523    0.313107773682459    0.958074840298445  0.0000
  Si     Si        0.653622963454733    0.648721868488301    0.009970435040584  0.0000
  Si     Si        0.851720180437935    0.306134593866113    0.011313460385353  0.0000
  O1     O1        0.085592282725089    0.202348674543585    0.342855007803380  0.0000
  O1     O1        0.416454218011223    0.756710545924262    0.348974541512649  0.0000
  O1     O1        0.916406272511502    0.204740684329496    0.619119255066379  0.0000
  O1     O1        0.585650557681415    0.759347388956969    0.625111858950987  0.0000
  O1     O1        0.884107398435871    0.854515243450750    0.611192940212850  0.0000
  O1     O1        0.621518053556612    0.109161073916290    0.618377434266253  0.0000
  O1     O1        0.121602718206536    0.852588008302914    0.349761657053512  0.0000
  O1     O1        0.384011281097637    0.106881064270913    0.356882127289394  0.0000
  O1     O1        0.027388768555413    0.979591898829821    0.529913934735684  0.0000
  O1     O1        0.527333433990099    0.982125845459529    0.438190741911069  0.0000
  O1     O1        0.971651215455412    0.974197608446305    0.284942727587489  0.0000
  O1     O1        0.484976262045939    0.985622775904307    0.182148006701908  0.0000
  O1     O1        0.985023114724424    0.975972962193668    0.785947679601859  0.0000
  O1     O1        0.471611257788918    0.987254176497016    0.683171367778969  0.0000
  O1     O1        0.626196719657598    0.111711023311561    0.107501956368973  0.0000
  O1     O1        0.873576961434849    0.843135140943207    0.112287476109939  0.0000
  O1     O1        0.373502354368131    0.118350645453266    0.855797900192114  0.0000
  O1     O1        0.126277364934074    0.850163516970749    0.860640643101806  0.0000
  O3     O3        0.409962809090170    0.764674689743150    0.873782886515464  0.0000
  O3     O3        0.095464258002708    0.201033917788403    0.878947619858093  0.0000
  O3     O3        0.595504968977954    0.760812938014493    0.089126875230717  0.0000
  O3     O3        0.909898295956153    0.196859922643913    0.094442016232938  0.0000
  O1     O1        0.521133784043424    0.005480728227006    0.928279760023282  0.0000
  O1     O1        0.021179861329939    0.956321641911741    0.039833418440203  0.0000
  O1     O1        0.164807161618745    0.510539943726821    0.316581769705670  0.0000
  O1     O1        0.341053445566407    0.446563445891141    0.313628886087685  0.0000
  O1     O1        0.841054289525433    0.514900269495238    0.654540537088728  0.0000
  O1     O1        0.664818951529879    0.451133915586833    0.651543419672996  0.0000
  O1     O1        0.236825709983994    0.194819912501806    0.270641050339616  0.0000
  O1     O1        0.268445337037707    0.763777864322906    0.267407318508895  0.0000
  O1     O1        0.768396448882123    0.197763425947276    0.700722554484702  0.0000
  O1     O1        0.736883558194599    0.766799944700685    0.697394683503644  0.0000
  O3     O3        0.126340360286609    0.324517044397196    0.103452343735402  0.0000
  O3     O3        0.379408410588749    0.647049041285044    0.102096015742527  0.0000
  O3     O3        0.879402736874399    0.314252480373406    0.866043918858024  0.0000
  O3     O3        0.626348712037854    0.637415264781667    0.864593782100019  0.0000
  O1     O1        0.861936868817943    0.737975149696348    0.860532070101121  0.0000
  O1     O1        0.644349264630190    0.229991896310856    0.862283211753394  0.0000
  O1     O1        0.144391327104871    0.731736804663512    0.105841384862732  0.0000
  O1     O1        0.361893997409054    0.223593339718437    0.107546560547011  0.0000
  O3     O3        0.659931959982899    0.459338988466517    0.068685947278545  0.0000
  O3     O3        0.845934496237071    0.497446611992155    0.063410899232533  0.0000
  O3     O3        0.345944259601020    0.464113938273113    0.904631475229701  0.0000
  O3     O3        0.159935905909158    0.502479595183033    0.899353736222183  0.0000
  O3     O3        0.770615130639741    0.214201467402575    0.017786878138897  0.0000
  O3     O3        0.734361949859792    0.742172750907720    0.010269942359051  0.0000
  O3     O3        0.234320610097355    0.219547063946412    0.957787555540551  0.0000
  O3     O3        0.270667982678926    0.747430933521517    0.950349688039341  0.0000
