data_c00013.vasp
_audit_creation_method             Generated by GULP
_audit_author_name                 Salvador R. G. Balestra
_symmetry_space_group_name_H-M     'P 1             '
_symmetry_Int_Tables_number        1

loop_
_symmetry_equiv_pos_site_id
_symmetry_equiv_pos_as_xyz
_cell_length_a                       17.1266
_cell_length_b                        7.8676
_cell_length_c                       10.5243
_cell_angle_alpha                   98.1181
_cell_angle_beta                    90.0086
_cell_angle_gamma                   90.0047

loop_
_atom_site_label
_atom_site_type_symbol
_atom_site_fract_x
_atom_site_fract_y
_atom_site_fract_z
_atom_site_charge
  Ge     Ge        0.052090000000021    0.000000000000000    0.372269999999958  0.0000
  Ge     Ge        0.475494126134862    0.979861655198304    0.383889274819454  0.0000
  Ge     Ge        0.975486890469087    0.907594051510885    0.638686850374877  0.0000
  Ge     Ge        0.552042583176763    0.887197804782968    0.650290370323573  0.0000
  Ge     Ge        0.597445052414424    0.013949561158420    0.152079724639505  0.0000
  Ge     Ge        0.968002001496433    0.023232675024045    0.095329491363623  0.0000
  Ge     Ge        0.467971949374475    0.864246175271641    0.927253641094213  0.0000
  Ge     Ge        0.097409447600248    0.873229181282696    0.870524331622568  0.0000
  Ge     Ge        0.176146677588293    0.267027885296991    0.300554334443980  0.0000
  Ge     Ge        0.353975491980015    0.667344316481201    0.297900014835447  0.0000
  Ge     Ge        0.854016729728532    0.220151107984216    0.724681120915982  0.0000
  Ge     Ge        0.676070761047955    0.620143119096455    0.722054312581794  0.0000
  Ge     Ge        0.867645724527781    0.604830121006709    0.690084075385317  0.0000
  Ge     Ge        0.674189503858019    0.204984100861179    0.748964179186277  0.0000
  Ge     Ge        0.174126157741500    0.682144331924598    0.273623262296270  0.0000
  Ge     Ge        0.367733725537123    0.282703977625468    0.332513266407011  0.0000
  Ge     Ge        0.694429196567357    0.312356603658896    0.057776500493067  0.0000
  Ge     Ge        0.194341735982991    0.574750943961382    0.964796067579416  0.0000
  Ge     Ge        0.372819096160853    0.533024511970346    0.991026768719161  0.0000
  Ge     Ge        0.872882616563565    0.354448501775294    0.031558253018944  0.0000
  Si     Si        0.870510619295384    0.714432605051942    0.985486628173206  0.0000
  Si     Si        0.370529068145157    0.173054996158548    0.037133523157993  0.0000
  Si     Si        0.186602641778638    0.191325322316463    0.010379476499436  0.0000
  Si     Si        0.686579740520357    0.695796803452438    0.012226650577096  0.0000
  O1     O1        0.118798182199021    0.163687984801950    0.398216393905756  0.0000
  O1     O1        0.417811521769212    0.828590545986522    0.290126973362459  0.0000
  O1     O1        0.917924451791298    0.059055728656647    0.732437012629586  0.0000
  O1     O1        0.618634286835111    0.723311034493612    0.624393600258536  0.0000
  O1     O1        0.924483624539098    0.720587598657125    0.597677730767586  0.0000
  O1     O1        0.599026086763411    0.080736867820153    0.682093239168311  0.0000
  O1     O1        0.098940562030211    0.806332933597091    0.340410474246743  0.0000
  O1     O1        0.424610418847629    0.166993204669124    0.424916542458016  0.0000
  O1     O1        0.994348945972965    0.999793257113093    0.504492108587196  0.0000
  O1     O1        0.494305385393687    0.887515040815275    0.518045098449154  0.0000
  O1     O1        0.987966276417858    0.038155337914688    0.253074471088810  0.0000
  O1     O1        0.559981323414827    0.002049218402552    0.300875844997732  0.0000
  O1     O1        0.059965853582344    0.885201653152837    0.721707899687827  0.0000
  O1     O1        0.487896211105684    0.849337811359352    0.769505210578444  0.0000
  O1     O1        0.640047141992302    0.211105486109732    0.161746243134071  0.0000
  O3     O3        0.882253075431527    0.901336910691881    0.061256061041633  0.0000
  O3     O3        0.382253088102297    0.986160250761879    0.961355058774546  0.0000
  O1     O1        0.139893793912091    0.675969185925051    0.860870650947641  0.0000
  O1     O1        0.449164705049298    0.662870145137541    0.965206536747689  0.0000
  O3     O3        0.168495853083271    0.034917655961356    0.902883316177344  0.0000
  O3     O3        0.668427352891944    0.852079569849668    0.119783953852191  0.0000
  O1     O1        0.949232032167830    0.224620030703372    0.057374105156038  0.0000
  O1     O1        0.532352550330352    0.981112428487889    0.027939690258659  0.0000
  O1     O1        0.032325421490423    0.906309338828218    0.994624780305685  0.0000
  O1     O1        0.154337296207611    0.477973787917152    0.304950028971336  0.0000
  O1     O1        0.383358205400114    0.498159383142934    0.376303236428380  0.0000
  O1     O1        0.883310532915953    0.389395202554526    0.646283938450727  0.0000
  O1     O1        0.654354391930179    0.409159093644858    0.717693599829007  0.0000
  O1     O1        0.270437095352842    0.238116103216532    0.346535468862582  0.0000
  O1     O1        0.262704272452160    0.742617236983749    0.345216328557374  0.0000
  O1     O1        0.762762163206184    0.144666833927195    0.677365088391643  0.0000
  O1     O1        0.770337170302707    0.649287480134940    0.676067811737494  0.0000
  O3     O3        0.148311646526741    0.164501841329926    0.146685384079444  0.0000
  O1     O1        0.338338708304792    0.554195959045865    0.146776609981379  0.0000
  O1     O1        0.838361695330470    0.333235524796316    0.875810060851900  0.0000
  O3     O3        0.648274545170564    0.722668423375323    0.875922769525304  0.0000
  O3     O3        0.903696610015601    0.696152880993744    0.840902101095045  0.0000
  O1     O1        0.680302553949105    0.190158668149979    0.910003175313655  0.0000
  O1     O1        0.180218033053597    0.696895604416869    0.112575226385167  0.0000
  O3     O3        0.403769787938859    0.191397454128437    0.181701798474502  0.0000
  O3     O3        0.658122983092493    0.518331273000500    0.056364091851072  0.0000
  O3     O3        0.906803904516837    0.566064847196954    0.059785784890071  0.0000
  O3     O3        0.406760796837382    0.321437213106767    0.962796836396295  0.0000
  O3     O3        0.158097925311216    0.368694877163477    0.966133942346899  0.0000
  O1     O1        0.789373655113490    0.316984131562936    0.113441622534280  0.0000
  O2     O2        0.777879019894762    0.664486394899831    0.973548182795388  0.0000
  O2     O2        0.277888444581401    0.222875756274826    0.049132092134263  0.0000
  O1     O1        0.289278372042188    0.570351080372069    0.909145816481594  0.0000
