data_c00016.vasp
_audit_creation_method             Generated by GULP
_audit_author_name                 Salvador R. G. Balestra
_symmetry_space_group_name_H-M     'P 1             '
_symmetry_Int_Tables_number        1

loop_
_symmetry_equiv_pos_site_id
_symmetry_equiv_pos_as_xyz
_cell_length_a                       17.6140
_cell_length_b                        7.8227
_cell_length_c                       10.3044
_cell_angle_alpha                   89.3129
_cell_angle_beta                    89.9252
_cell_angle_gamma                   90.9817

loop_
_atom_site_label
_atom_site_type_symbol
_atom_site_fract_x
_atom_site_fract_y
_atom_site_fract_z
_atom_site_charge
  Ge     Ge        0.052090000000021    0.000000000000000    0.372269999999958  0.0000
  Ge     Ge        0.445589439007627    0.045154336957185    0.373455487734641  0.0000
  Ge     Ge        0.947828674686431    0.059784507203270    0.623657165126165  0.0000
  Ge     Ge        0.547437640046897    0.003731357738360    0.628363986288395  0.0000
  Ge     Ge        0.561433511711310    0.999828283169589    0.138202427891347  0.0000
  Ge     Ge        0.941841784538128    0.055175855897329    0.129003388151386  0.0000
  Ge     Ge        0.450977495985406    0.055303791933233    0.892242771294723  0.0000
  Ge     Ge        0.049241626854643    0.004346596285571    0.880025591033925  0.0000
  Ge     Ge        0.174268357840473    0.284243116520500    0.259058795949066  0.0000
  Ge     Ge        0.326822743881779    0.751691085671550    0.263524629793286  0.0000
  Ge     Ge        0.849383012997185    0.370749771028568    0.699769081575937  0.0000
  Ge     Ge        0.646551343853314    0.693023414658817    0.705697713152599  0.0000
  Ge     Ge        0.825176166352969    0.777402998431549    0.701816571654964  0.0000
  Ge     Ge        0.671000150827806    0.284332274400536    0.706631760816686  0.0000
  Ge     Ge        0.145635050814984    0.684901076302125    0.261501575692707  0.0000
  Ge     Ge        0.674829658981234    0.293790679744876    0.019343024911935  0.0000
  Ge     Ge        0.826857822866932    0.763111474766794    0.014788866251424  0.0000
  Ge     Ge        0.352382796199445    0.371578085515598    0.948726908763246  0.0000
  Ge     Ge        0.153320215815515    0.694294520536523    0.943519533151193  0.0000
  Ge     Ge        0.172996086371633    0.292550547518684    0.944191718585560  0.0000
  Si     Si        0.352114778299834    0.355118678330582    0.255771290982925  0.0000
  Si     Si        0.329448028172095    0.769296551996155    0.956079108540789  0.0000
  Si     Si        0.648582891332266    0.689698375267042    0.014052393631345  0.0000
  Si     Si        0.852844452336732    0.368669303891606    0.008267401184497  0.0000
  O1     O1        0.131455446519252    0.125747750237991    0.348576102203060  0.0000
  O1     O1        0.377144042742384    0.889437119495669    0.357934246103812  0.0000
  O1     O1        0.914233206088639    0.263944814610100    0.608660044110509  0.0000
  O1     O1        0.581994333979469    0.800524289352489    0.613394524248748  0.0000
  O1     O1        0.874854547743149    0.913843806520122    0.601407902700521  0.0000
  O1     O1        0.620215972561898    0.151935483785260    0.608077717265509  0.0000
  O1     O1        0.076079548362461    0.792943076199947    0.341096119996129  0.0000
  O3     O3        0.412883588326837    0.246574153087417    0.335899187142924  0.0000
  O1     O1        0.025501797338099    0.019371766888261    0.532530801993338  0.0000
  O1     O1        0.470783513935429    0.046212053848028    0.535522890861676  0.0000
  O1     O1        0.973273796676030    0.062313869946613    0.286675286237763  0.0000
  O1     O1        0.528763976007043    0.997674868129664    0.295469018091415  0.0000
  O1     O1        0.972772532771814    0.037451026268658    0.785433844833532  0.0000
  O1     O1        0.523158665621928    0.014323998017902    0.790969360519754  0.0000
  O1     O1        0.634478380053381    0.147256548504511    0.122986982772709  0.0000
  O1     O1        0.869076003247450    0.907013906946414    0.115821503806938  0.0000
  O1     O1        0.416442325893005    0.257971762907593    0.863012073507265  0.0000
  O1     O1        0.091379676199620    0.810431442038021    0.853868622886555  0.0000
  O3     O3        0.377222765944688    0.906191495988286    0.873180281104281  0.0000
  O1     O1        0.119341677872442    0.156840414348491    0.853559563490886  0.0000
  O3     O3        0.590191731003721    0.796170566065603    0.098523811255677  0.0000
  O3     O3        0.913855720372932    0.259624545365276    0.086474812565994  0.0000
  O1     O1        0.483615200588868    0.054539538928067    0.049118689031682  0.0000
  O1     O1        0.019221312727865    0.999885646025400    0.039589043173297  0.0000
  O1     O1        0.153829672385190    0.480515627848418    0.322146676687057  0.0000
  O3     O3        0.340986010499803    0.541992167756953    0.315346766548107  0.0000
  O1     O1        0.836697617465050    0.572785125780314    0.643258431441518  0.0000
  O1     O1        0.659244953004607    0.491856308013372    0.651052293566809  0.0000
  O3     O3        0.271492657811147    0.253988656935447    0.257167601219655  0.0000
  O1     O1        0.232026759734444    0.790581841832720    0.275337726623564  0.0000
  O1     O1        0.766803031945656    0.249229466291032    0.700319958040482  0.0000
  O1     O1        0.729654901827392    0.813380984824145    0.701636465045769  0.0000
  O1     O1        0.141610842311147    0.274383535081205    0.102466231414407  0.0000
  O3     O3        0.357954072673934    0.776709663578925    0.104853502044087  0.0000
  O3     O3        0.879315762442498    0.390828558505209    0.859753801943092  0.0000
  O3     O3        0.618628276729214    0.673885723184880    0.867423350550759  0.0000
  O1     O1        0.858660628137515    0.793791170627616    0.859039789782348  0.0000
  O1     O1        0.640370055019574    0.263316850803395    0.865722125694553  0.0000
  O1     O1        0.122192973767650    0.669911891913181    0.100896398107369  0.0000
  O3     O3        0.381175559142800    0.378032565628881    0.109350473702632  0.0000
  O3     O3        0.656998632770352    0.499409614259158    0.072114686770294  0.0000
  O3     O3        0.845710864732846    0.556322962098337    0.068283316793814  0.0000
  O3     O3        0.342072690877259    0.580174651232678    0.897533725874617  0.0000
  O1     O1        0.162123819461737    0.496087507452337    0.881104619527823  0.0000
  O3     O3        0.772098638213337    0.268385097974574    0.013683825810684  0.0000
  O3     O3        0.729601600138642    0.789017288914957    0.014095818279670  0.0000
  O1     O1        0.268406173131074    0.257598585372524    0.940566229654841  0.0000
  O3     O3        0.240087566937193    0.804863272110347    0.952106960515731  0.0000
