data_c00078.vasp
_audit_creation_method             Generated by GULP
_audit_author_name                 Salvador R. G. Balestra
_symmetry_space_group_name_H-M     'P 1             '
_symmetry_Int_Tables_number        1

loop_
_symmetry_equiv_pos_site_id
_symmetry_equiv_pos_as_xyz
_cell_length_a                       17.6755
_cell_length_b                        7.8350
_cell_length_c                       10.2060
_cell_angle_alpha                   89.8452
_cell_angle_beta                    89.8205
_cell_angle_gamma                   91.1794

loop_
_atom_site_label
_atom_site_type_symbol
_atom_site_fract_x
_atom_site_fract_y
_atom_site_fract_z
_atom_site_charge
  Ge     Ge        0.052090000000021    0.000000000000000    0.372269999999958  0.0000
  Ge     Ge        0.438379932296384    0.055425592649650    0.328935229162161  0.0000
  Ge     Ge        0.947212280970466    0.038880988265119    0.624444701890107  0.0000
  Ge     Ge        0.545108824607531    0.994857083526964    0.580213705111345  0.0000
  Ge     Ge        0.544043957165094    0.986772151144807    0.079143740974124  0.0000
  Ge     Ge        0.940132452618071    0.047446236737362    0.132869605316652  0.0000
  Ge     Ge        0.438985093890182    0.045921148417245    0.830423410859474  0.0000
  Ge     Ge        0.049251080677265    0.993182521364949    0.884526433132763  0.0000
  Ge     Ge        0.165946142960887    0.298489955948226    0.259441306214048  0.0000
  Ge     Ge        0.319772463806325    0.762047197487640    0.258910979937619  0.0000
  Ge     Ge        0.849031448123126    0.356479359955628    0.691177054141071  0.0000
  Ge     Ge        0.640509939934238    0.681660409394645    0.694785473036711  0.0000
  Ge     Ge        0.821014508823127    0.759403722323450    0.692694063421301  0.0000
  Ge     Ge        0.668601453004571    0.278867572585643    0.693870366602059  0.0000
  Ge     Ge        0.668684769400863    0.272881724948120    0.011944520603913  0.0000
  Ge     Ge        0.819970792200897    0.762405415033875    0.011554765966440  0.0000
  Ge     Ge        0.348889383158155    0.364246817910137    0.950986542489423  0.0000
  Ge     Ge        0.166915804437054    0.292296813110251    0.944803010989566  0.0000
  Ge     Ge        0.641580991010890    0.674270701896922    0.014621619613976  0.0000
  Ge     Ge        0.847820833930469    0.357981917035871    0.010062282161877  0.0000
  Si     Si        0.144525636723631    0.692749545535154    0.253183477915018  0.0000
  Si     Si        0.344169098133103    0.367368660837376    0.261228693507553  0.0000
  Si     Si        0.150988414206757    0.685773361595018    0.944245905149909  0.0000
  Si     Si        0.324700078621350    0.760145521376757    0.946664168563423  0.0000
  O1     O1        0.122302231580460    0.153059562742583    0.359889898311555  0.0000
  O1     O1        0.368153200381796    0.902393593004686    0.354810646206630  0.0000
  O1     O1        0.914509512995806    0.242616856678143    0.605012277746161  0.0000
  O1     O1        0.573398431921125    0.790081306856841    0.608829217069818  0.0000
  O1     O1        0.872167922693751    0.899903942630913    0.597938544018369  0.0000
  O1     O1        0.620719232597071    0.131005894646494    0.601933974370627  0.0000
  O3     O3        0.079797870890744    0.799675167765994    0.320974755593928  0.0000
  O3     O3        0.400195127678825    0.256167854930982    0.349133917452757  0.0000
  O1     O1        0.025642135292036    0.993506900489682    0.534578299042182  0.0000
  O1     O1        0.516642855495555    0.019441366649367    0.419500743727253  0.0000
  O1     O1        0.969982678161217    0.048623439404201    0.293055886281116  0.0000
  O1     O1        0.466175642334282    0.034333617030058    0.167653401209925  0.0000
  O1     O1        0.972777378594506    0.012678945489066    0.787116190148983  0.0000
  O1     O1        0.465226700919803    0.041913109777213    0.668728837277147  0.0000
  O1     O1        0.617557673603041    0.130722234530767    0.104496895886302  0.0000
  O1     O1        0.865569732666881    0.907753008491887    0.109560350608354  0.0000
  O1     O1        0.413690307814104    0.252167211997859    0.865524940252875  0.0000
  O3     O3        0.093082728562835    0.797203018976121    0.865019109170945  0.0000
  O3     O3        0.363433136346849    0.905580538602820    0.859083684025945  0.0000
  O1     O1        0.115282059527167    0.152601483855761    0.852111109694671  0.0000
  O1     O1        0.577295961598255    0.784917933305581    0.105262647029329  0.0000
  O1     O1        0.914176624459231    0.252424803006392    0.097686508418436  0.0000
  O1     O1        0.517563400863082    0.992017824080799    0.915921814216068  0.0000
  O1     O1        0.018354774830351    0.993800655527321    0.043788331778621  0.0000
  O3     O3        0.147961880326720    0.504131072264159    0.313705690635475  0.0000
  O3     O3        0.336892448887655    0.557050304090347    0.315714849844906  0.0000
  O1     O1        0.836030307768465    0.557021883004806    0.631596030322662  0.0000
  O1     O1        0.653377082742554    0.480850523035827    0.632957028726965  0.0000
  O3     O3        0.262597068707156    0.271440672956069    0.258046373251314  0.0000
  O3     O3        0.223749840762238    0.795272021647348    0.271710135588257  0.0000
  O1     O1        0.764044841598875    0.243521063395602    0.691382192413475  0.0000
  O1     O1        0.725572762997165    0.794361776186091    0.689257868484771  0.0000
  O1     O1        0.134748989170973    0.263662255004996    0.103195542027109  0.0000
  O3     O3        0.349496379398936    0.782836057343831    0.097531442937274  0.0000
  O1     O1        0.878459392919141    0.375622736469982    0.851006723147191  0.0000
  O1     O1        0.612228309600801    0.656209240694793    0.854434563186450  0.0000
  O1     O1        0.851839175970052    0.774530560601141    0.852708823765926  0.0000
  O1     O1        0.636689695179099    0.264148240512156    0.852822127787645  0.0000
  O2     O2        0.128798813303572    0.665649552820709    0.098131496843494  0.0000
  O3     O3        0.375886133396800    0.374462430140730    0.113344408178266  0.0000
  O1     O1        0.655109596648427    0.474977629800615    0.075139432114452  0.0000
  O1     O1        0.834051292178205    0.558368294640362    0.070335896099221  0.0000
  O3     O3        0.346895347812356    0.573640031959526    0.895618603033310  0.0000
  O3     O3        0.152318819190139    0.497652651565331    0.886208431771083  0.0000
  O1     O1        0.764092685225694    0.239654701875094    0.013214317005368  0.0000
  O1     O1        0.724488052708097    0.794881411305703    0.012399555752664  0.0000
  O1     O1        0.262390927756136    0.263061354179643    0.936410902760652  0.0000
  O2     O2        0.233802998594844    0.777784239880624    0.938471637584078  0.0000
