data_c00071.vasp
_audit_creation_method             Generated by GULP
_audit_author_name                 Salvador R. G. Balestra
_symmetry_space_group_name_H-M     'P 1             '
_symmetry_Int_Tables_number        1

loop_
_symmetry_equiv_pos_site_id
_symmetry_equiv_pos_as_xyz
_cell_length_a                       17.6342
_cell_length_b                        7.8774
_cell_length_c                       10.2239
_cell_angle_alpha                   89.9995
_cell_angle_beta                    90.0002
_cell_angle_gamma                   87.8384

loop_
_atom_site_label
_atom_site_type_symbol
_atom_site_fract_x
_atom_site_fract_y
_atom_site_fract_z
_atom_site_charge
  Ge     Ge        0.052090000000021    0.000000000000000    0.372269999999958  0.0000
  Ge     Ge        0.445856248480971    0.955791128595811    0.372273075346465  0.0000
  Ge     Ge        0.948086854094321    0.946764926590870    0.626438995709671  0.0000
  Ge     Ge        0.549857123348414    0.009037914876025    0.626441555941657  0.0000
  Ge     Ge        0.553298784185399    0.000842554684455    0.119583319132680  0.0000
  Ge     Ge        0.944648977043258    0.954919105595210    0.119580248359144  0.0000
  Ge     Ge        0.444514570583457    0.947519142231020    0.873895773638887  0.0000
  Ge     Ge        0.053431073363960    0.008265925100838    0.873895432222835  0.0000
  Ge     Ge        0.148643433084559    0.316230695475850    0.309592572453795  0.0000
  Ge     Ge        0.349303304858711    0.639563036230772    0.309585169083124  0.0000
  Ge     Ge        0.825579860276120    0.239578383802913    0.744541718341686  0.0000
  Ge     Ge        0.672365792386493    0.716220172693636    0.744554153115990  0.0000
  Ge     Ge        0.853939695707290    0.640112750090088    0.742456344619484  0.0000
  Ge     Ge        0.644004840420812    0.315686964017544    0.742448885350067  0.0000
  Ge     Ge        0.648421148481136    0.317523246896836    0.058562318681032  0.0000
  Ge     Ge        0.849526147749875    0.638240696682763    0.058574137117748  0.0000
  Ge     Ge        0.324608174254174    0.237904873389508    0.995910932929903  0.0000
  Ge     Ge        0.173336200548141    0.717879516165826    0.995903951198929  0.0000
  Ge     Ge        0.355422547059616    0.636794353828902    0.993854872295059  0.0000
  Ge     Ge        0.142522755940807    0.318989528426037    0.993858988311254  0.0000
  Si     Si        0.169875590931094    0.706855521642733    0.306447384716565  0.0000
  Si     Si        0.328069911256132    0.248938980246329    0.306457046763362  0.0000
  Si     Si        0.670206060417120    0.707018101412849    0.054942627212095  0.0000
  Si     Si        0.827742554498640    0.248743777799340    0.054925410503362  0.0000
  O1     O1        0.091488864661919    0.192987903632961    0.401963697291715  0.0000
  O1     O1        0.406454888287678    0.762804443903795    0.401962763357096  0.0000
  O1     O1        0.873228508224258    0.085899949677877    0.657485596807841  0.0000
  O1     O1        0.624715143712400    0.869910521969839    0.657512244019590  0.0000
  O1     O1        0.919839747229167    0.743842752292229    0.652757193696282  0.0000
  O1     O1        0.578105882417404    0.211961956018466    0.652743229572802  0.0000
  O3     O3        0.123742358083052    0.844410996253181    0.392640039166992  0.0000
  O3     O3        0.374206993143321    0.111385842242471    0.392649048142398  0.0000
  O1     O1        0.974328623440991    0.964746168887621    0.464605106367175  0.0000
  O1     O1        0.523620120253506    0.991033742622839    0.464607116882840  0.0000
  O1     O1        0.021535432433010    0.996636194588659    0.211796088482000  0.0000
  O1     O1        0.476408511477821    0.959156467235936    0.211798701503313  0.0000
  O1     O1        0.028145391233398    0.994000393040394    0.712293922540804  0.0000
  O1     O1        0.469795996073137    0.961815320827757    0.712294491588955  0.0000
  O1     O1        0.591649525148829    0.195005876105754    0.151823620406322  0.0000
  O1     O1        0.906303063437722    0.760752404227508    0.151829957097129  0.0000
  O1     O1        0.367375480402665    0.079456047671784    0.907157212724353  0.0000
  O1     O1        0.130572068334394    0.876326853091075    0.907141277703898  0.0000
  O1     O1        0.420960985936661    0.741484153946605    0.904747922337258  0.0000
  O1     O1        0.076981186370731    0.214297493545612    0.904762505130066  0.0000
  O3     O3        0.625602416112007    0.846967652875734    0.140568838780311  0.0000
  O3     O3        0.872339558557539    0.108782451760702    0.140550880631716  0.0000
  O1     O1        0.522879804246472    0.005381595080117    0.959687327974236  0.0000
  O1     O1        0.975071150477039    0.950372458372078    0.959686130982746  0.0000
  O3     O3        0.154722192957850    0.521269921842950    0.366488397738539  0.0000
  O3     O3        0.343223520457455    0.434527166184374    0.366489808326918  0.0000
  O1     O1        0.843078959552442    0.438509370295630    0.684100951655082  0.0000
  O1     O1        0.654864064314305    0.517296864511415    0.684102966874985  0.0000
  O3     O3        0.238681467489771    0.219340857372677    0.306275375063206  0.0000
  O3     O3        0.259264362270211    0.736449357513933    0.306256245818988  0.0000
  O1     O1        0.730582848198833    0.206324209243645    0.736815213108779  0.0000
  O1     O1        0.767362461147416    0.749479389531424    0.736824291771851  0.0000
  O1     O1        0.113113691817782    0.323303337862298    0.154039747097821  0.0000
  O1     O1        0.384836057273033    0.632490352310894    0.154034778073351  0.0000
  O3     O3        0.857350983249854    0.238994740247187    0.905507608822543  0.0000
  O3     O3        0.640601768219733    0.716775380994823    0.905522643613559  0.0000
  O1     O1        0.883958342103380    0.632935529645941    0.902146406677260  0.0000
  O1     O1        0.613983066982809    0.322844296574136    0.902138184261536  0.0000
  O3     O3        0.140965862078918    0.718178577478048    0.156653428640998  0.0000
  O3     O3        0.356975461843360    0.237617513931354    0.156661631381191  0.0000
  O3     O3        0.654063734188330    0.522327084171402    0.115917233835940  0.0000
  O3     O3        0.843885968474212    0.433427150403805    0.115912348970724  0.0000
  O1     O1        0.345597988454236    0.434940683549271    0.935337422121954  0.0000
  O1     O1        0.152347647098019    0.520841510818841    0.935335114742989  0.0000
  O3     O3        0.738373811716628    0.220963477625944    0.053604661031259  0.0000
  O3     O3        0.759574266250045    0.734807032475671    0.053638039400431  0.0000
  O1     O1        0.229254936708373    0.211186146984084    0.989637904963754  0.0000
  O1     O1        0.268689720709840    0.744594620194383    0.989636354597379  0.0000
