data_c00018.vasp
_audit_creation_method             Generated by GULP
_audit_author_name                 Salvador R. G. Balestra
_symmetry_space_group_name_H-M     'P 1             '
_symmetry_Int_Tables_number        1

loop_
_symmetry_equiv_pos_site_id
_symmetry_equiv_pos_as_xyz
_cell_length_a                       17.6566
_cell_length_b                        7.8374
_cell_length_c                       10.3230
_cell_angle_alpha                   89.9853
_cell_angle_beta                    90.1778
_cell_angle_gamma                   91.3585

loop_
_atom_site_label
_atom_site_type_symbol
_atom_site_fract_x
_atom_site_fract_y
_atom_site_fract_z
_atom_site_charge
  Ge     Ge        0.052090000000021    0.000000000000000    0.372269999999958  0.0000
  Ge     Ge        0.446619481894099    0.046961208120060    0.406843949877806  0.0000
  Ge     Ge        0.948727077405243    0.063990148451158    0.623735561590408  0.0000
  Ge     Ge        0.547306089261622    0.006887954886549    0.663934597852645  0.0000
  Ge     Ge        0.558554571586233    0.012570268208361    0.167544834604860  0.0000
  Ge     Ge        0.950277033164366    0.073116229458789    0.117689542383842  0.0000
  Ge     Ge        0.446140079787096    0.052865993536435    0.923914569062824  0.0000
  Ge     Ge        0.056901350719387    0.012299497686485    0.869686200629973  0.0000
  Ge     Ge        0.175446242310133    0.282952220420846    0.293436455749715  0.0000
  Ge     Ge        0.329062595361179    0.749142170935915    0.296475111336280  0.0000
  Ge     Ge        0.852105475593161    0.373532534905129    0.740893942416264  0.0000
  Ge     Ge        0.647029383205798    0.696945604035202    0.734302477730828  0.0000
  Ge     Ge        0.825997743195274    0.776804700215405    0.733955590684551  0.0000
  Ge     Ge        0.671876021275373    0.291015585678318    0.741195428757792  0.0000
  Ge     Ge        0.147721414530438    0.685127084404459    0.303986781149824  0.0000
  Ge     Ge        0.672794728619196    0.309045758000608    0.053626379329664  0.0000
  Ge     Ge        0.826084389618806    0.787312716922397    0.048314532760460  0.0000
  Ge     Ge        0.348361665277646    0.369043275420709    0.982942608626638  0.0000
  Ge     Ge        0.149092446493351    0.695944646302673    0.990770263334081  0.0000
  Ge     Ge        0.853415665201002    0.389036820169418    0.056485623457568  0.0000
  Si     Si        0.352286852006563    0.352095480522988    0.288863172205793  0.0000
  Si     Si        0.328229640946140    0.762447482512874    0.990416480681575  0.0000
  Si     Si        0.170819164393559    0.299395165447164    0.986420959092706  0.0000
  Si     Si        0.649384755094020    0.707039544684440    0.042674034986071  0.0000
  O1     O1        0.129855554687774    0.136552337378852    0.387410646229510  0.0000
  O1     O1        0.379540973353246    0.887264062980008    0.391656068682262  0.0000
  O1     O1        0.919042110764497    0.265844591696369    0.655892969897631  0.0000
  O1     O1        0.581333238604609    0.804177281464578    0.646030485403673  0.0000
  O1     O1        0.875151160538963    0.920155737173165    0.640418417292826  0.0000
  O1     O1        0.621600331556986    0.151386134622111    0.645870492415358  0.0000
  O1     O1        0.084218417492578    0.797307820086529    0.394663846647943  0.0000
  O3     O3        0.413145571735266    0.246309996592632    0.368649356485945  0.0000
  O1     O1        0.976908515489805    0.053200780553514    0.463706810672031  0.0000
  O1     O1        0.472185037809970    0.051076639501239    0.568323788588912  0.0000
  O1     O1        0.024453000843971    0.021374551790834    0.211860361327567  0.0000
  O1     O1        0.528368509837843    0.002907760968265    0.325586062373718  0.0000
  O1     O1        0.028521682474678    0.016142794467542    0.710601148793945  0.0000
  O1     O1        0.519413252037151    0.017168136384455    0.824354300468301  0.0000
  O1     O1        0.627059465361809    0.170376636091251    0.155916111144060  0.0000
  O1     O1        0.872376792137350    0.937423583786932    0.138621404976777  0.0000
  O1     O1        0.407538353233464    0.250108983705162    0.893227851854034  0.0000
  O1     O1        0.089431721034284    0.810097279420580    0.896978124384411  0.0000
  O3     O3        0.373011415583226    0.901539023142758    0.906198810414280  0.0000
  O3     O3        0.128868804587590    0.161103209758263    0.896872504230689  0.0000
  O3     O3        0.589913459385794    0.812579090432757    0.124456160044214  0.0000
  O1     O1        0.918655333890938    0.276304822303945    0.142378717718160  0.0000
  O1     O1        0.479070167432590    0.057961000282301    0.080325854071264  0.0000
  O1     O1        0.978155098499356    0.055570792592985    0.957886398033366  0.0000
  O1     O1        0.155981482470486    0.480906636680727    0.356373114258725  0.0000
  O3     O3        0.341844583333597    0.539890009734143    0.347408204267448  0.0000
  O1     O1        0.838838109722570    0.572438565304430    0.677131107355984  0.0000
  O1     O1        0.658156308900501    0.494111019680756    0.680997047043577  0.0000
  O3     O3        0.271707605505960    0.249763986262391    0.293546526595196  0.0000
  O1     O1        0.234853314159411    0.789104894556748    0.307828710436534  0.0000
  O1     O1        0.767602028068298    0.257494243158943    0.739797366021492  0.0000
  O1     O1        0.730802496948292    0.813638818843503    0.728015610692366  0.0000
  O3     O3        0.142242081099827    0.280710819287591    0.134377752142532  0.0000
  O3     O3        0.359252009951410    0.771433345252741    0.137749580013787  0.0000
  O1     O1        0.882006916100059    0.401837469215171    0.897394929592006  0.0000
  O3     O3        0.620342885722153    0.683089321705994    0.896287473880495  0.0000
  O1     O1        0.857939135747256    0.794505188907331    0.890929426668627  0.0000
  O1     O1        0.639759410618117    0.276356692824641    0.898877341868422  0.0000
  O1     O1        0.116106057003042    0.690349491342867    0.145819877935882  0.0000
  O3     O3        0.379989520444596    0.371274287573490    0.141934586241327  0.0000
  O3     O3        0.660534542083213    0.519843891894362    0.102134269409594  0.0000
  O1     O1        0.844663163939147    0.590498685089091    0.115081286597926  0.0000
  O3     O3        0.343433565238278    0.576159969843119    0.929621826749051  0.0000
  O3     O3        0.154026819610382    0.488659265937944    0.934225987107582  0.0000
  O1     O1        0.768183497479642    0.276996552347631    0.057306000134352  0.0000
  O3     O3        0.729028850545301    0.813261306586274    0.043689477829187  0.0000
  O3     O3        0.260029139999758    0.269944852061265    0.982861920410627  0.0000
  O3     O3        0.238725680440778    0.791547165668943    0.991591830383327  0.0000
