data_c00056.vasp
_audit_creation_method             Generated by GULP
_audit_author_name                 Salvador R. G. Balestra
_symmetry_space_group_name_H-M     'P 1             '
_symmetry_Int_Tables_number        1

loop_
_symmetry_equiv_pos_site_id
_symmetry_equiv_pos_as_xyz
_cell_length_a                       17.1822
_cell_length_b                        7.8942
_cell_length_c                       10.5401
_cell_angle_alpha                   84.2842
_cell_angle_beta                    89.9337
_cell_angle_gamma                   90.3596

loop_
_atom_site_label
_atom_site_type_symbol
_atom_site_fract_x
_atom_site_fract_y
_atom_site_fract_z
_atom_site_charge
  Ge     Ge        0.052090000000021    0.000000000000000    0.372269999999958  0.0000
  Ge     Ge        0.449848362432191    0.037977650190201    0.359122350916865  0.0000
  Ge     Ge        0.964488950892474    0.066658818176973    0.631905109610085  0.0000
  Ge     Ge        0.539428231551485    0.052181479366736    0.624232775181977  0.0000
  Ge     Ge        0.563739732817538    0.017680101811940    0.125340280941878  0.0000
  Ge     Ge        0.937173856413824    0.039595336940046    0.131559337571588  0.0000
  Ge     Ge        0.444786818408257    0.134693834568143    0.887273848693900  0.0000
  Ge     Ge        0.060477065264058    0.104645629442382    0.894676530754526  0.0000
  Ge     Ge        0.171660925519256    0.299721570550471    0.239518906311464  0.0000
  Ge     Ge        0.340441764247997    0.738456226753183    0.289411908707764  0.0000
  Ge     Ge        0.852586733447994    0.354256984345836    0.711086278341058  0.0000
  Ge     Ge        0.652815715483114    0.740024234907381    0.690961091843615  0.0000
  Ge     Ge        0.835351537062502    0.777098097483072    0.696892843495289  0.0000
  Ge     Ge        0.664370476834390    0.322821913587548    0.705504525562276  0.0000
  Ge     Ge        0.147161402565382    0.696445262418223    0.286950335913045  0.0000
  Ge     Ge        0.838863039479383    0.733335240897296    0.013038674657352  0.0000
  Ge     Ge        0.348285322177411    0.461188101027894    0.927907226188372  0.0000
  Ge     Ge        0.339830786699090    0.828793921622702    0.991024295836296  0.0000
  Ge     Ge        0.165933886528855    0.416605921230745    0.927940001584416  0.0000
  Ge     Ge        0.653381348966730    0.703394979538531    0.012026472843998  0.0000
  Si     Si        0.349397349517919    0.356996203921598    0.240968815756858  0.0000
  Si     Si        0.660595437496657    0.317993511127616    0.998802054228030  0.0000
  Si     Si        0.153302944551664    0.782323086745688    0.996079432923707  0.0000
  Si     Si        0.845359676779695    0.343151085742005    0.001526170171273  0.0000
  O1     O1        0.127382037525080    0.117836628897964    0.302171377723868  0.0000
  O1     O1        0.389291517894672    0.865188409333706    0.387287303717759  0.0000
  O1     O1        0.916111633358792    0.257854987159465    0.617657718579866  0.0000
  O1     O1        0.579355353884159    0.853902162170637    0.615613836205737  0.0000
  O1     O1        0.900033178901432    0.904448387991851    0.609730751921430  0.0000
  O1     O1        0.613501900500749    0.199654757602211    0.610960434615516  0.0000
  O1     O1        0.085149765935030    0.792705824264831    0.384479424774633  0.0000
  O3     O3        0.414035529647006    0.216118325751347    0.268882024103615  0.0000
  O1     O1        0.036267620448393    0.065527776668800    0.520502025965114  0.0000
  O1     O1        0.472417237769930    0.095678533041125    0.507767370286841  0.0000
  O1     O1        0.966713074866526    0.026622950555176    0.287100441593874  0.0000
  O1     O1        0.535025194957201    0.995998076096093    0.281226907220855  0.0000
  O1     O1        0.000557261258364    0.031454714535823    0.783841111145648  0.0000
  O1     O1        0.496731278374175    0.055183841624032    0.771530138286807  0.0000
  O3     O3        0.643985932342782    0.157539661405069    0.099070045873190  0.0000
  O1     O1        0.900959208116656    0.847128728002002    0.099080588382114  0.0000
  O1     O1        0.416173907261135    0.342105965741583    0.857679315126059  0.0000
  O3     O3        0.135778202262332    0.953865358133505    0.911410844527696  0.0000
  O1     O1        0.357527082997846    0.018261014520254    0.907740105916314  0.0000
  O1     O1        0.104277338265726    0.294910806680048    0.843959525165376  0.0000
  O1     O1        0.587659945445455    0.818410803566673    0.088479712048215  0.0000
  O3     O3        0.863519857269967    0.193518877605101    0.109252094066238  0.0000
  O1     O1        0.490394966902993    0.104414926297489    0.031692225095033  0.0000
  O1     O1        0.013861811868843    0.112361602083327    0.037575662897231  0.0000
  O1     O1        0.133265704653669    0.480756698308754    0.293583748513665  0.0000
  O3     O3        0.370191904900759    0.527967926071157    0.306307661812369  0.0000
  O1     O1        0.855862731698028    0.568247694581162    0.677858486694801  0.0000
  O1     O1        0.645960383085137    0.532437798659424    0.659646785152799  0.0000
  O3     O3        0.267023382472722    0.282878743567374    0.293524810375611  0.0000
  O1     O1        0.242617823779844    0.743586506241944    0.318956289602335  0.0000
  O1     O1        0.760551911344712    0.274944820956508    0.691276472515854  0.0000
  O1     O1        0.742993425364293    0.816283679693848    0.641885279386563  0.0000
  O1     O1        0.166301704205637    0.305636578872062    0.077204585599412  0.0000
  O1     O1        0.372684759084355    0.835178689418446    0.144411531616834  0.0000
  O3     O3        0.882636894946531    0.298392981455850    0.868686645576284  0.0000
  O1     O1        0.650592994900397    0.762266797952314    0.851942041105717  0.0000
  O1     O1        0.841186740346406    0.811829719323383    0.855725298910110  0.0000
  O3     O3        0.628449793725583    0.276318828825677    0.861258223015861  0.0000
  O3     O3        0.116697475463227    0.784591623781189    0.136150532285568  0.0000
  O3     O3        0.337200660568264    0.409162463377482    0.090670219572867  0.0000
  O3     O3        0.624424491296436    0.490199261537217    0.041185281360630  0.0000
  O3     O3        0.874496186368963    0.525922138828478    0.034833365221810  0.0000
  O1     O1        0.379273055539375    0.668577945541940    0.910974932830575  0.0000
  O3     O3        0.124464861652056    0.616172088574336    0.931406708544652  0.0000
  O2     O2        0.752174722013335    0.368137594498943    0.971674534078958  0.0000
  O1     O1        0.745199124440640    0.739580442979024    0.068952311485566  0.0000
  O1     O1        0.257497240118064    0.431579612169855    0.863066747133808  0.0000
  O3     O3        0.245727783092676    0.750528762016290    0.018478050343004  0.0000
