data_c00021.vasp
_audit_creation_method             Generated by GULP
_audit_author_name                 Salvador R. G. Balestra
_symmetry_space_group_name_H-M     'P 1             '
_symmetry_Int_Tables_number        1

loop_
_symmetry_equiv_pos_site_id
_symmetry_equiv_pos_as_xyz
_cell_length_a                       17.6785
_cell_length_b                        7.7900
_cell_length_c                       10.3710
_cell_angle_alpha                   89.3967
_cell_angle_beta                    90.5071
_cell_angle_gamma                   90.8806

loop_
_atom_site_label
_atom_site_type_symbol
_atom_site_fract_x
_atom_site_fract_y
_atom_site_fract_z
_atom_site_charge
  Ge     Ge        0.052090000000021    0.000000000000000    0.372269999999958  0.0000
  Ge     Ge        0.446688707854160    0.047522125567048    0.394913685659821  0.0000
  Ge     Ge        0.950534972447586    0.063630019243458    0.625794177083763  0.0000
  Ge     Ge        0.548173827762696    0.016115914284228    0.652799100562919  0.0000
  Ge     Ge        0.555829334573419    0.013390230651444    0.154948425960122  0.0000
  Ge     Ge        0.947963706718506    0.071832988749271    0.117888534882158  0.0000
  Ge     Ge        0.445615680648659    0.071461530400919    0.909148201793169  0.0000
  Ge     Ge        0.056287430299721    0.016146564194103    0.874347305331605  0.0000
  Ge     Ge        0.175963693478416    0.278586192164451    0.287996335033685  0.0000
  Ge     Ge        0.329170931870933    0.753328306347239    0.295506281958355  0.0000
  Ge     Ge        0.853348666917514    0.375234785001082    0.739815346886574  0.0000
  Ge     Ge        0.647318343935789    0.700993072580810    0.724423258059058  0.0000
  Ge     Ge        0.825554260424433    0.780788223794158    0.729814568151921  0.0000
  Ge     Ge        0.673723373741709    0.293148536714788    0.733947547074412  0.0000
  Ge     Ge        0.148094712910634    0.685916703895797    0.301415843071877  0.0000
  Ge     Ge        0.671847257785616    0.308200597530497    0.045044748816611  0.0000
  Ge     Ge        0.823262257380410    0.790770228997835    0.043305569678411  0.0000
  Ge     Ge        0.343031817411831    0.382398265342405    0.966718917947840  0.0000
  Ge     Ge        0.324424659203345    0.781743815533190    0.985780570383152  0.0000
  Ge     Ge        0.851235937442368    0.389970938989654    0.053898849041268  0.0000
  Si     Si        0.350712801019838    0.357229434584138    0.277021885903413  0.0000
  Si     Si        0.147339562142301    0.706198254706876    0.998839298855842  0.0000
  Si     Si        0.169207650802357    0.306668921591028    0.982480049717416  0.0000
  Si     Si        0.647742220668011    0.708792953809510    0.031872992640155  0.0000
  O1     O1        0.130943847861311    0.133074730573564    0.383517305087149  0.0000
  O1     O1        0.378745686679550    0.889519493450640    0.394101015800852  0.0000
  O1     O1        0.921949273249115    0.267224616197056    0.659607276558957  0.0000
  O1     O1        0.580351002277154    0.809866928117515    0.637513418136270  0.0000
  O1     O1        0.875544797517938    0.923550367979668    0.637081972366484  0.0000
  O1     O1        0.624346210118759    0.154772195042011    0.637375075062004  0.0000
  O1     O1        0.084064909031047    0.794248071670043    0.392294506491388  0.0000
  O3     O3        0.416421649531467    0.246543921775923    0.341527593091339  0.0000
  O1     O1        0.979653174033918    0.056336519154403    0.467186214310694  0.0000
  O1     O1        0.474891237451683    0.066528434942357    0.553946329591197  0.0000
  O1     O1        0.021786217257040    0.021879786864554    0.213968762381102  0.0000
  O1     O1        0.526152649806383    0.993782450932169    0.311775017609124  0.0000
  O1     O1        0.028424611026818    0.007046412335360    0.715642325455098  0.0000
  O1     O1        0.518296566322093    0.031058485880597    0.810850059134872  0.0000
  O1     O1        0.624845550753704    0.170184829205459    0.146239585718099  0.0000
  O1     O1        0.869755971646861    0.937493936995229    0.135522895880834  0.0000
  O1     O1        0.408257295018792    0.272678127065018    0.883330690901692  0.0000
  O3     O3        0.091100969445457    0.813559383198392    0.909331418206979  0.0000
  O1     O1        0.369427512730550    0.931682655782756    0.893445536675467  0.0000
  O3     O3        0.120769305900314    0.185143034939643    0.889725146325393  0.0000
  O3     O3        0.585892286549289    0.812482423023250    0.108838893213430  0.0000
  O1     O1        0.916313635812494    0.276555799137599    0.141654496609971  0.0000
  O1     O1        0.477661017149117    0.066761552361500    0.066123851973137  0.0000
  O1     O1        0.976696725702572    0.054680570806824    0.959543096354532  0.0000
  O1     O1        0.155517971737052    0.477666653513651    0.348438202999822  0.0000
  O3     O3        0.342357784849884    0.540852258702202    0.344339999424513  0.0000
  O1     O1        0.839356920957451    0.575414651960751    0.674818591348697  0.0000
  O1     O1        0.659579403534064    0.497665271881382    0.672101779102520  0.0000
  O3     O3        0.272522151184617    0.247922709036411    0.289875011703515  0.0000
  O1     O1        0.234317910280548    0.790120363067622    0.307600251349311  0.0000
  O1     O1        0.769342829100696    0.258280540636867    0.735591362294116  0.0000
  O1     O1        0.730420026359574    0.818798968503399    0.719137054478061  0.0000
  O3     O3        0.144316003751296    0.267308434762391    0.128854433788684  0.0000
  O1     O1        0.359717934218950    0.792167371809729    0.140996975048272  0.0000
  O1     O1        0.880849264933509    0.405200760493438    0.896448705220267  0.0000
  O3     O3        0.620689984846020    0.684238205279454    0.885161971683436  0.0000
  O1     O1        0.855443756608471    0.799909006119627    0.887296436059026  0.0000
  O1     O1        0.640313953645739    0.276955675837122    0.889826441724958  0.0000
  O3     O3        0.115514923073011    0.695755882856617    0.142386990506466  0.0000
  O3     O3        0.367561332789879    0.399237202464761    0.128647002220597  0.0000
  O3     O3        0.659679945796213    0.520389993750699    0.092191772531755  0.0000
  O1     O1        0.840604688523036    0.591652664584214    0.111154363663186  0.0000
  O1     O1        0.339518161888600    0.588018840411131    0.912336506505472  0.0000
  O2     O2        0.158049497969490    0.510354886767479    0.949943892753308  0.0000
  O1     O1        0.767068265159681    0.274611887620023    0.051976033133595  0.0000
  O3     O3        0.726187474839906    0.818523949191297    0.036592398259754  0.0000
  O3     O3        0.257166885270709    0.270907689375704    0.962283464533999  0.0000
  O3     O3        0.227676242343850    0.805925714541896    0.998404262518386  0.0000
