data_c00096.vasp
_audit_creation_method             Generated by GULP
_audit_author_name                 Salvador R. G. Balestra
_symmetry_space_group_name_H-M     'P 1             '
_symmetry_Int_Tables_number        1

loop_
_symmetry_equiv_pos_site_id
_symmetry_equiv_pos_as_xyz
_cell_length_a                       17.6219
_cell_length_b                        7.8438
_cell_length_c                       10.1101
_cell_angle_alpha                   89.3594
_cell_angle_beta                    91.6407
_cell_angle_gamma                   87.3537

loop_
_atom_site_label
_atom_site_type_symbol
_atom_site_fract_x
_atom_site_fract_y
_atom_site_fract_z
_atom_site_charge
  Ge     Ge        0.052090000000021    0.000000000000000    0.372269999999958  0.0000
  Ge     Ge        0.445560826892172    0.960378296604843    0.345668286019834  0.0000
  Ge     Ge        0.936741378799242    0.961449361188107    0.608218917933041  0.0000
  Ge     Ge        0.536897114281930    0.038350305903607    0.610651751799393  0.0000
  Ge     Ge        0.556737810072443    0.016269788557422    0.116007945861268  0.0000
  Ge     Ge        0.938264129351165    0.952714749110104    0.123268021870838  0.0000
  Ge     Ge        0.438566199972925    0.971988420903144    0.873375607056225  0.0000
  Ge     Ge        0.036923612588203    0.031803077377672    0.868626431815905  0.0000
  Ge     Ge        0.148547208608463    0.306586669451934    0.250701174751669  0.0000
  Ge     Ge        0.355731893765315    0.637831136824824    0.248007165888199  0.0000
  Ge     Ge        0.815203008379006    0.251584173682438    0.681827911188065  0.0000
  Ge     Ge        0.658781201481895    0.733340849801337    0.679736810644077  0.0000
  Ge     Ge        0.839355509263945    0.650986260677407    0.672280463465309  0.0000
  Ge     Ge        0.170032495363596    0.710237061878905    0.261700608020921  0.0000
  Ge     Ge        0.637064621914115    0.338955425819798    0.993975680703595  0.0000
  Ge     Ge        0.846971809699508    0.642916729795779    0.994631179410154  0.0000
  Ge     Ge        0.160861189049392    0.738331830865516    0.944137959156170  0.0000
  Ge     Ge        0.346414950809057    0.652918013693895    0.933411418491929  0.0000
  Ge     Ge        0.138089809537155    0.337997617560026    0.918729580339374  0.0000
  Ge     Ge        0.818455681985319    0.245331786179240    0.003600053331521  0.0000
  Si     Si        0.637456545384069    0.336804920821384    0.682027533063822  0.0000
  Si     Si        0.323040026026298    0.254737963683639    0.234621777268160  0.0000
  Si     Si        0.312461717379880    0.275506454006261    0.918063978181483  0.0000
  Si     Si        0.667412232413963    0.731370904523750    0.992198268659853  0.0000
  O1     O1        0.081828754054379    0.197926543482150    0.331829892018732  0.0000
  O1     O1        0.416653099756286    0.755257751459054    0.343150216779579  0.0000
  O1     O1        0.861335322362162    0.108214951768049    0.583421080497581  0.0000
  O1     O1        0.602064528461014    0.870878343402700    0.585682638959146  0.0000
  O1     O1        0.902394968792217    0.763175143987977    0.582990435933733  0.0000
  O3     O3        0.579808709543743    0.231844210592612    0.592549282816909  0.0000
  O1     O1        0.127426289515999    0.856010754539756    0.364306147641312  0.0000
  O3     O3        0.378118043680857    0.091657314170554    0.260468257162890  0.0000
  O1     O1        0.018251111734561    0.003710736301560    0.531174974560711  0.0000
  O1     O1        0.459448382666572    0.022238155924635    0.507246691728680  0.0000
  O1     O1        0.971734704324437    0.946070223886178    0.284276038918096  0.0000
  O1     O1        0.532640015067594    0.989252655265738    0.277717378088600  0.0000
  O1     O1        0.961056470051133    0.977102015312776    0.775382943584447  0.0000
  O1     O1        0.508449939631713    0.025258420288861    0.771453410253492  0.0000
  O1     O1        0.574746471204652    0.226676641691187    0.083041536583941  0.0000
  O1     O1        0.912445329373473    0.750201667426783    0.083081672175510  0.0000
  O3     O3        0.363381045325702    0.123153848032728    0.864601222951699  0.0000
  O1     O1        0.116290647741669    0.896995270671628    0.852274350336176  0.0000
  O1     O1        0.400513624064526    0.779664393463500    0.837867898579404  0.0000
  O1     O1        0.067868164406312    0.233380093398193    0.838169348570271  0.0000
  O3     O3        0.633431882912414    0.880315859264875    0.082461809570629  0.0000
  O1     O1        0.859597450351226    0.088957540791398    0.103398238845488  0.0000
  O1     O1        0.475661675731229    0.963645303258824    0.031338222959367  0.0000
  O1     O1        0.010605358989721    0.022005926471299    0.031454473881641  0.0000
  O1     O1        0.149854039123389    0.508541924565713    0.312251056373656  0.0000
  O3     O3        0.353615922894447    0.425203380472436    0.301675695531879  0.0000
  O1     O1        0.829679859714267    0.450066341904340    0.614542166866053  0.0000
  O3     O3        0.647469398498637    0.525230002781462    0.625497465981196  0.0000
  O3     O3        0.239509803672443    0.212933710590629    0.280221690036149  0.0000
  O1     O1        0.266145539175844    0.730345244425758    0.261547377260638  0.0000
  O3     O3        0.717998973259845    0.229154239866748    0.688669231681789  0.0000
  O1     O1        0.753365379989074    0.767387615051422    0.667649760415957  0.0000
  O1     O1        0.125552930515579    0.310762269797314    0.085782752860045  0.0000
  O1     O1        0.387475204022163    0.647757078663341    0.089954918359710  0.0000
  O1     O1        0.848978703293413    0.231491011481191    0.843296115363119  0.0000
  O3     O3        0.632288000942319    0.752868526206496    0.843508540875441  0.0000
  O1     O1        0.873003342435346    0.629286984263870    0.833272784236476  0.0000
  O3     O3        0.606372911901194    0.351918718379267    0.830160242803213  0.0000
  O1     O1        0.131376493278547    0.748161640957187    0.105451105047452  0.0000
  O2     O2        0.314382372767314    0.307440113283702    0.077821282653360  0.0000
  O3     O3        0.646728002033784    0.545790682893177    0.048845567604609  0.0000
  O1     O1        0.841139503220830    0.443186622736165    0.061367543334639  0.0000
  O3     O3        0.340288443898389    0.455245716995127    0.861442036493116  0.0000
  O1     O1        0.134615494510270    0.547964152591883    0.876510426881281  0.0000
  O1     O1        0.722321708725982    0.227322541160465    0.007144785057573  0.0000
  O3     O3        0.757529162976285    0.746529277586189    0.989374178734789  0.0000
  O3     O3        0.226071447951262    0.247418031367911    0.876510907142239  0.0000
  O1     O1        0.257318005180228    0.748375746001560    0.948498247885436  0.0000
