data_c00022.vasp
_audit_creation_method             Generated by GULP
_audit_author_name                 Salvador R. G. Balestra
_symmetry_space_group_name_H-M     'P 1             '
_symmetry_Int_Tables_number        1

loop_
_symmetry_equiv_pos_site_id
_symmetry_equiv_pos_as_xyz
_cell_length_a                       17.5272
_cell_length_b                        7.9090
_cell_length_c                       10.4077
_cell_angle_alpha                   87.8735
_cell_angle_beta                    90.1935
_cell_angle_gamma                   90.8199

loop_
_atom_site_label
_atom_site_type_symbol
_atom_site_fract_x
_atom_site_fract_y
_atom_site_fract_z
_atom_site_charge
  Ge     Ge        0.052090000000021    0.000000000000000    0.372269999999958  0.0000
  Ge     Ge        0.448630401351122    0.035014300613609    0.369488422821875  0.0000
  Ge     Ge        0.950767132972967    0.037375116756271    0.626836220667990  0.0000
  Ge     Ge        0.549229491620737    0.993834438413586    0.629978143488183  0.0000
  Ge     Ge        0.552439975132757    0.970761174100336    0.118772736930921  0.0000
  Ge     Ge        0.952211011311560    0.024268219483635    0.109310903708442  0.0000
  Ge     Ge        0.442575712549836    0.041214160981131    0.874422083081216  0.0000
  Ge     Ge        0.065962221513515    0.017501016948357    0.863547281096286  0.0000
  Ge     Ge        0.169538176865303    0.290383887710888    0.286195459382517  0.0000
  Ge     Ge        0.334923547750609    0.740472674944643    0.296666776761810  0.0000
  Ge     Ge        0.853975158679503    0.345683229633617    0.739106069148196  0.0000
  Ge     Ge        0.646742425715791    0.677348138909581    0.743905824428868  0.0000
  Ge     Ge        0.829077377010513    0.747463762982389    0.738226874109396  0.0000
  Ge     Ge        0.672040895765576    0.277311890511064    0.738430760481963  0.0000
  Ge     Ge        0.152535767558225    0.698018783704019    0.295462291914331  0.0000
  Ge     Ge        0.673725918258878    0.263229159892531    0.049405771713722  0.0000
  Ge     Ge        0.833335104587781    0.728866429930241    0.050247712439327  0.0000
  Ge     Ge        0.354938868046006    0.363763546377335    0.984390472458811  0.0000
  Ge     Ge        0.167606102807118    0.325396937331732    0.973208282867896  0.0000
  Ge     Ge        0.651124265257678    0.658779186888540    0.059972866028444  0.0000
  Si     Si        0.348530078002632    0.341718562975220    0.290735638922811  0.0000
  Si     Si        0.159269749704077    0.712514222682564    0.997301024065050  0.0000
  Si     Si        0.341105527247241    0.747891109972884    0.000193159100615  0.0000
  Si     Si        0.852331483604279    0.336232285902927    0.043797249580615  0.0000
  O1     O1        0.123035372088905    0.151285314275418    0.387716668709467  0.0000
  O1     O1        0.386548957607781    0.866442640542929    0.395347392996034  0.0000
  O1     O1        0.923085348919686    0.237896986921211    0.662329626186670  0.0000
  O1     O1        0.578498745669067    0.790713829607943    0.662198808488030  0.0000
  O1     O1        0.876526467538940    0.897071836617918    0.645539588622002  0.0000
  O1     O1        0.623167625137527    0.133462967386164    0.650893718318588  0.0000
  O1     O1        0.091076611026688    0.802522330528902    0.391086305386830  0.0000
  O3     O3        0.403268787915495    0.227800966834722    0.380744785594313  0.0000
  O1     O1        0.975754924720588    0.032012868648500    0.466708680669291  0.0000
  O1     O1        0.524380317113968    0.017378524419520    0.470080163985201  0.0000
  O1     O1        0.026368613393990    0.019111099142227    0.212217302255878  0.0000
  O1     O1        0.479764315894468    0.026444650361686    0.213151552623052  0.0000
  O1     O1        0.032808609710844    0.987554023573336    0.710555811366872  0.0000
  O1     O1        0.468197568703305    0.034591035655861    0.716174780418495  0.0000
  O1     O1        0.629319627231169    0.107522998594312    0.137656769161214  0.0000
  O1     O1        0.887320123305006    0.861714374163798    0.140312443521402  0.0000
  O1     O1        0.417119866060151    0.245554656167761    0.901957538748683  0.0000
  O3     O3        0.131603452096899    0.861698684801835    0.903594722924977  0.0000
  O3     O3        0.364448907280339    0.907534368644568    0.910408428140267  0.0000
  O1     O1        0.115656384318362    0.204678561147945    0.871266512216272  0.0000
  O1     O1        0.587245149883894    0.770527961251574    0.146226222120618  0.0000
  O3     O3        0.909279645150212    0.219581811943160    0.125353392765115  0.0000
  O1     O1        0.521195635162814    0.981441899757241    0.960776880987904  0.0000
  O1     O1        0.985089865795582    0.008722449651362    0.954705100610605  0.0000
  O1     O1        0.154296330772788    0.489638431237605    0.340494022318344  0.0000
  O3     O3        0.341994057597509    0.528187730047600    0.344269700110127  0.0000
  O1     O1        0.844554524468138    0.549294469682510    0.679892315511246  0.0000
  O1     O1        0.657189112996821    0.481396026929022    0.680978939381731  0.0000
  O3     O3        0.266100630373204    0.250194211599324    0.286334131462322  0.0000
  O1     O1        0.241116847531159    0.792584689743998    0.307350944860642  0.0000
  O1     O1        0.768296446984253    0.238979835283934    0.729669560821106  0.0000
  O1     O1        0.733025325548206    0.784840093902308    0.735791565746060  0.0000
  O1     O1        0.140474967523816    0.276606571237839    0.128584158283117  0.0000
  O3     O3        0.374171068826434    0.771770654142295    0.143033103535831  0.0000
  O3     O3        0.881845933492412    0.362905697166292    0.898070773552404  0.0000
  O1     O1        0.622059933506803    0.649216002472730    0.902296749406649  0.0000
  O1     O1        0.861900346843856    0.758407918071182    0.893356344769056  0.0000
  O1     O1        0.639816093640963    0.259415394548156    0.894062193686081  0.0000
  O3     O3        0.120175370371628    0.718914868359223    0.136074100724439  0.0000
  O3     O3        0.379435410571187    0.351740593131450    0.145229770666244  0.0000
  O1     O1        0.657554659313263    0.454765710649340    0.117705341431040  0.0000
  O3     O3        0.844444241436827    0.518684026523029    0.103797508125385  0.0000
  O3     O3        0.368700107870043    0.576357153060258    0.938288122473274  0.0000
  O3     O3        0.143642844077334    0.533776105099357    0.934745404202802  0.0000
  O3     O3        0.771153451829225    0.237764374052798    0.038227981562455  0.0000
  O1     O1        0.737773216444524    0.765517974347605    0.062010949268987  0.0000
  O1     O1        0.263691542755303    0.295676516390419    0.954693526381482  0.0000
  O2     O2        0.250385560830805    0.721949079192525    0.027327260228553  0.0000
