data_c00031.vasp
_audit_creation_method             Generated by GULP
_audit_author_name                 Salvador R. G. Balestra
_symmetry_space_group_name_H-M     'P 1             '
_symmetry_Int_Tables_number        1

loop_
_symmetry_equiv_pos_site_id
_symmetry_equiv_pos_as_xyz
_cell_length_a                       17.0311
_cell_length_b                        7.9158
_cell_length_c                       10.5307
_cell_angle_alpha                   84.5405
_cell_angle_beta                    89.9917
_cell_angle_gamma                   89.8299

loop_
_atom_site_label
_atom_site_type_symbol
_atom_site_fract_x
_atom_site_fract_y
_atom_site_fract_z
_atom_site_charge
  Ge     Ge        0.052090000000021    0.000000000000000    0.372269999999958  0.0000
  Ge     Ge        0.450235094614289    0.025490717796297    0.351995635835898  0.0000
  Ge     Ge        0.963308068880597    0.071114831482763    0.631373086740842  0.0000
  Ge     Ge        0.540980899283942    0.048385604094023    0.617714573684570  0.0000
  Ge     Ge        0.561788009529895    0.010161341452112    0.114371220958142  0.0000
  Ge     Ge        0.934914515398642    0.051258404402945    0.132273941264356  0.0000
  Ge     Ge        0.442561253881922    0.131665049562650    0.882409962370391  0.0000
  Ge     Ge        0.059387759209973    0.105374269178692    0.894219095300548  0.0000
  Ge     Ge        0.170413318522191    0.297538417010809    0.238370288854410  0.0000
  Ge     Ge        0.342272853570229    0.727556300166640    0.281814148963879  0.0000
  Ge     Ge        0.854927776328083    0.364738909530023    0.712821753741820  0.0000
  Ge     Ge        0.651469185894730    0.722464640552128    0.678671235974606  0.0000
  Ge     Ge        0.831108367708585    0.788817087105982    0.696223848748341  0.0000
  Ge     Ge        0.666058733081125    0.318933745207721    0.692532193924575  0.0000
  Ge     Ge        0.146848775382491    0.692979148852170    0.285265060773559  0.0000
  Ge     Ge        0.659839927290135    0.311559152844324    0.994174608752917  0.0000
  Ge     Ge        0.832137871334385    0.751361640937420    0.010220367342145  0.0000
  Ge     Ge        0.341133244514031    0.812102777244998    0.986057105391675  0.0000
  Ge     Ge        0.164112048905569    0.416196373162879    0.927716268919954  0.0000
  Ge     Ge        0.647846980114335    0.691453817281780    0.004420922570862  0.0000
  Si     Si        0.351283003634470    0.346601860231702    0.228843760579738  0.0000
  Si     Si        0.345264394240136    0.449896452327636    0.923815637612382  0.0000
  Si     Si        0.152657284632423    0.782052351259741    0.995146385228931  0.0000
  Si     Si        0.848509791543765    0.363126512098897    0.000009814977628  0.0000
  O1     O1        0.128589076339028    0.115966012571324    0.303692938425845  0.0000
  O1     O1        0.389849390135095    0.854168428721438    0.381587222641627  0.0000
  O1     O1        0.919555485592634    0.268295618175100    0.618735796177255  0.0000
  O1     O1        0.573715223828439    0.840960003544857    0.620838718648202  0.0000
  O1     O1        0.896057594408546    0.914853337926151    0.608507526603282  0.0000
  O1     O1        0.619194290125012    0.182986600606578    0.600108542796790  0.0000
  O1     O1        0.085657983471110    0.792744571412162    0.383351066548559  0.0000
  O3     O3        0.414800657313485    0.201392006340304    0.257635336002514  0.0000
  O1     O1        0.036303311843233    0.063066704592680    0.521499762659630  0.0000
  O1     O1        0.475300284443296    0.089985525188915    0.496820479971019  0.0000
  O1     O1        0.966030629696685    0.031980507218940    0.287725024119473  0.0000
  O1     O1        0.533938567737196    0.973961142907544    0.269632274547014  0.0000
  O1     O1        0.999156466805970    0.031311862103109    0.783990420059754  0.0000
  O1     O1        0.496670091260453    0.068629974077038    0.761544165230385  0.0000
  O1     O1        0.646166100702895    0.132913943254212    0.095116959319138  0.0000
  O1     O1        0.890312263304592    0.867993934157300    0.101184192788782  0.0000
  O3     O3        0.405045732620535    0.335509581866983    0.852495189434305  0.0000
  O3     O3        0.135888927515548    0.953893031051769    0.911716612892114  0.0000
  O1     O1        0.361978192305078    0.995581523505078    0.899283603067529  0.0000
  O1     O1        0.103875762251157    0.293902329408577    0.842198962643404  0.0000
  O1     O1        0.574871441149038    0.821972382794626    0.048420617139930  0.0000
  O3     O3        0.866750400569460    0.218706972933880    0.111807598886491  0.0000
  O1     O1        0.494478035461534    0.127822790175583    0.020851832916128  0.0000
  O1     O1        0.014080492385166    0.109915598897555    0.038752162593159  0.0000
  O1     O1        0.132834171350552    0.477760193427778    0.295764453014640  0.0000
  O3     O3        0.373353042947101    0.517640937985827    0.292049127869201  0.0000
  O1     O1        0.852033873752884    0.578337372159470    0.680384313058313  0.0000
  O1     O1        0.647777952664628    0.522979908779939    0.628205141977062  0.0000
  O3     O3        0.268356068242769    0.278959540566548    0.283304780792719  0.0000
  O1     O1        0.244213038664586    0.734349095643203    0.313984951638358  0.0000
  O1     O1        0.764535915774236    0.274261412096666    0.693210389900714  0.0000
  O1     O1        0.738304267285571    0.823178367123327    0.636236833650084  0.0000
  O1     O1        0.160285627570193    0.306755419880277    0.076426799544646  0.0000
  O1     O1        0.376858259224263    0.823691581517434    0.137425481288971  0.0000
  O3     O3        0.889607161128364    0.315544130125094    0.869408671960803  0.0000
  O1     O1        0.658685115335612    0.690360846167014    0.842577161533054  0.0000
  O1     O1        0.836739634054658    0.832772189410246    0.853540363982438  0.0000
  O1     O1        0.626429153388080    0.278117710870084    0.844178632595367  0.0000
  O3     O3        0.114374576571785    0.778458541401416    0.134836786888984  0.0000
  O2     O2        0.339229416384361    0.394901664906378    0.076690661797514  0.0000
  O1     O1        0.621294318651097    0.486809363389844    0.056117650538944  0.0000
  O3     O3        0.873452725882336    0.548878485347328    0.032587121974526  0.0000
  O3     O3        0.375479572426353    0.642241376244526    0.906923497572837  0.0000
  O3     O3        0.124636534022746    0.618013432653618    0.926720558948785  0.0000
  O3     O3        0.756092747638933    0.379253534676494    0.964262957080298  0.0000
  O1     O1        0.736731708273594    0.753942367508917    0.063502344435356  0.0000
  O3     O3        0.258509213065153    0.428651310649270    0.866425647930063  0.0000
  O3     O3        0.245550686821074    0.750157410746709    0.022543599713644  0.0000
