data_c00051.vasp
_audit_creation_method             Generated by GULP
_audit_author_name                 Salvador R. G. Balestra
_symmetry_space_group_name_H-M     'P 1             '
_symmetry_Int_Tables_number        1

loop_
_symmetry_equiv_pos_site_id
_symmetry_equiv_pos_as_xyz
_cell_length_a                       17.2799
_cell_length_b                        7.8700
_cell_length_c                       10.4007
_cell_angle_alpha                   86.9397
_cell_angle_beta                    91.3826
_cell_angle_gamma                   88.5864

loop_
_atom_site_label
_atom_site_type_symbol
_atom_site_fract_x
_atom_site_fract_y
_atom_site_fract_z
_atom_site_charge
  Ge     Ge        0.052090000000021    0.000000000000000    0.372269999999958  0.0000
  Ge     Ge        0.459937195721851    0.959545347247362    0.367100139442865  0.0000
  Ge     Ge        0.955503497937177    0.995771835986053    0.637767330853401  0.0000
  Ge     Ge        0.547785693174999    0.028248980455772    0.634501019089842  0.0000
  Ge     Ge        0.562947437012328    0.939423969466324    0.111585819237038  0.0000
  Ge     Ge        0.947754455109020    0.906030256598353    0.115586439911826  0.0000
  Ge     Ge        0.438584883172276    0.935741918123633    0.868064438933448  0.0000
  Ge     Ge        0.062550321720840    0.994236573217881    0.886514201438548  0.0000
  Ge     Ge        0.158934109332086    0.317342500805176    0.320909887132365  0.0000
  Ge     Ge        0.361463927423757    0.651278127446657    0.275531975373424  0.0000
  Ge     Ge        0.838281966629395    0.281142588896214    0.721860029615449  0.0000
  Ge     Ge        0.671600042872215    0.729693476244583    0.767173113750955  0.0000
  Ge     Ge        0.854041460030805    0.682580494507634    0.766604228995547  0.0000
  Ge     Ge        0.646441905060599    0.329578158996470    0.723244608784692  0.0000
  Ge     Ge        0.173962741875848    0.716870934561158    0.291453924889703  0.0000
  Ge     Ge        0.851191016902808    0.586907561729953    0.083198771852607  0.0000
  Ge     Ge        0.325053052310424    0.216938252899624    0.003175943959193  0.0000
  Ge     Ge        0.165055986063989    0.681405432011720    0.988400597704242  0.0000
  Ge     Ge        0.360297790989591    0.609740975900024    0.978137336803925  0.0000
  Ge     Ge        0.670366191168024    0.623258962266781    0.083702718217539  0.0000
  Si     Si        0.332978458704003    0.240870156399967    0.313008854752479  0.0000
  Si     Si        0.658738690167731    0.251262110624127    0.019525628849189  0.0000
  Si     Si        0.148018499516612    0.304130228808008    0.003148306418178  0.0000
  Si     Si        0.842935443000237    0.213266648909643    0.018543709867787  0.0000
  O1     O1        0.084984134745336    0.205018109725981    0.382921190783054  0.0000
  O1     O1        0.420667735984401    0.761039793984299    0.374017204537004  0.0000
  O1     O1        0.884703063459612    0.151650444999366    0.619190954983821  0.0000
  O1     O1        0.619998851625529    0.904788589089507    0.710437279369360  0.0000
  O1     O1        0.924658915070558    0.807434957303670    0.706323860162069  0.0000
  O1     O1        0.582166142172560    0.232242869964111    0.625548366126784  0.0000
  O1     O1        0.132195944090003    0.866785271200846    0.382745428920467  0.0000
  O3     O3        0.393121758850473    0.121088493416428    0.397206442607756  0.0000
  O1     O1        0.986329434051820    0.955073493807107    0.486557013591600  0.0000
  O1     O1        0.531959080982109    0.963413261897691    0.481744018108434  0.0000
  O1     O1        0.010524066955035    0.985967018924312    0.222504705822414  0.0000
  O1     O1        0.495875887294051    0.003603816395072    0.216420768116566  0.0000
  O1     O1        0.032747713388466    0.055284116549865    0.732838418287679  0.0000
  O1     O1        0.462569361704477    0.008821882637126    0.717017515599067  0.0000
  O3     O3        0.636309357588692    0.090137160154763    0.105949138515036  0.0000
  O1     O1        0.915283583946069    0.709017099804530    0.165046900025334  0.0000
  O1     O1        0.363129891756810    0.045733540814950    0.930799685554045  0.0000
  O1     O1        0.138439893768669    0.847689296762069    0.883073927274892  0.0000
  O1     O1        0.403279006569859    0.730732474154866    0.861847127807130  0.0000
  O3     O3        0.082457528680624    0.173338458452038    0.971612165564115  0.0000
  O1     O1        0.608486181770441    0.751460112276090    0.164613978458018  0.0000
  O3     O3        0.865647015675709    0.045836237872140    0.102697741856478  0.0000
  O1     O1        0.521894381662098    0.930970296391515    0.960920032235980  0.0000
  O1     O1        0.990113032660300    0.894192902151190    0.969076151849986  0.0000
  O1     O1        0.154220493590249    0.522231210249818    0.365688049282665  0.0000
  O3     O3        0.355421113752687    0.437806164150504    0.318495009570553  0.0000
  O1     O1        0.873329179133524    0.480903310702648    0.717003141566649  0.0000
  O1     O1        0.630824342177756    0.544818264226627    0.717530073893855  0.0000
  O3     O3        0.247740050692822    0.222005850055993    0.368300630348078  0.0000
  O1     O1        0.271328367635604    0.746967890620845    0.281989474839366  0.0000
  O1     O1        0.741244360603321    0.286463548357300    0.686275450235287  0.0000
  O1     O1        0.763241062347855    0.746045733595468    0.708199542468332  0.0000
  O3     O3        0.161754517838837    0.333970266932305    0.154174674387388  0.0000
  O1     O1        0.399215491572433    0.668137824947783    0.123934525116143  0.0000
  O3     O3        0.865687932875973    0.184085238178636    0.872209858804414  0.0000
  O1     O1        0.675674206290094    0.721029266470999    0.932365922144393  0.0000
  O1     O1        0.847455129173837    0.682606194509553    0.930567756160477  0.0000
  O3     O3        0.625211300961391    0.241653088535815    0.875492379906750  0.0000
  O1     O1        0.133755987102533    0.737273037260912    0.137061419865059  0.0000
  O3     O3        0.334916070599114    0.178783091001260    0.167461298217038  0.0000
  O3     O3        0.628794781397817    0.425181389315211    0.078296293179057  0.0000
  O3     O3        0.883436743327326    0.377105076879068    0.076489305536270  0.0000
  O1     O1        0.373853424550276    0.396225204744116    0.955723123856249  0.0000
  O3     O3        0.126034376660898    0.490927649288313    0.940502877718502  0.0000
  O2     O2        0.752124620172065    0.275523063884590    0.007566101104059  0.0000
  O1     O1        0.761769798693350    0.603537612919635    0.151515105152339  0.0000
  O3     O3        0.228845461615619    0.229200877031410    0.951890747980882  0.0000
  O1     O1        0.262369971265721    0.636486603161322    0.999407987011729  0.0000
