data_c00085.vasp
_audit_creation_method             Generated by GULP
_audit_author_name                 Salvador R. G. Balestra
_symmetry_space_group_name_H-M     'P 1             '
_symmetry_Int_Tables_number        1

loop_
_symmetry_equiv_pos_site_id
_symmetry_equiv_pos_as_xyz
_cell_length_a                       17.6150
_cell_length_b                        7.7772
_cell_length_c                       10.1071
_cell_angle_alpha                   89.7737
_cell_angle_beta                    90.7058
_cell_angle_gamma                   87.0207

loop_
_atom_site_label
_atom_site_type_symbol
_atom_site_fract_x
_atom_site_fract_y
_atom_site_fract_z
_atom_site_charge
  Ge     Ge        0.052090000000021    0.000000000000000    0.372269999999958  0.0000
  Ge     Ge        0.440057574495902    0.971449976514889    0.371750547882453  0.0000
  Ge     Ge        0.940747163093962    0.966800735958018    0.618142616433293  0.0000
  Ge     Ge        0.529794616804358    0.056984799209488    0.632490913459439  0.0000
  Ge     Ge        0.561032468561909    0.035413877803795    0.153171573263656  0.0000
  Ge     Ge        0.938556829022313    0.953146286397099    0.127574401911506  0.0000
  Ge     Ge        0.445162010889187    0.964755336873847    0.908144018455590  0.0000
  Ge     Ge        0.044503173946553    0.018839826456625    0.876710828839687  0.0000
  Ge     Ge        0.148336480540893    0.307207828861616    0.256785424027474  0.0000
  Ge     Ge        0.351206081510927    0.648000578645957    0.270231282392930  0.0000
  Ge     Ge        0.815297130503462    0.257394331510578    0.691369389749636  0.0000
  Ge     Ge        0.659194620070337    0.763476659467670    0.703860962798965  0.0000
  Ge     Ge        0.838079682871328    0.664925226008659    0.690592568775803  0.0000
  Ge     Ge        0.635785022453223    0.355672428116946    0.699243416131392  0.0000
  Ge     Ge        0.639213054352694    0.354093679402935    0.022116796763072  0.0000
  Ge     Ge        0.170402740171066    0.725917507523735    0.948126912910852  0.0000
  Ge     Ge        0.352714528122446    0.641428667974508    0.943326574857680  0.0000
  Ge     Ge        0.144098579299083    0.323395710482785    0.940094943402961  0.0000
  Ge     Ge        0.672802103775066    0.753253792367434    0.022637549134854  0.0000
  Ge     Ge        0.820004581360176    0.255560741922304    0.011509167617379  0.0000
  Si     Si        0.172512595946236    0.712409320206151    0.261460383119619  0.0000
  Si     Si        0.320650205045030    0.268000404559114    0.263786698914338  0.0000
  Si     Si        0.849170003083493    0.650594183282154    0.002690796660666  0.0000
  Si     Si        0.318064680607233    0.267064256804457    0.951362212468981  0.0000
  O1     O1        0.082646394474606    0.203073495695545    0.346572770958705  0.0000
  O1     O1        0.413564736892577    0.763500556558919    0.361590961689579  0.0000
  O1     O1        0.868189536238228    0.122063561878798    0.591870333085498  0.0000
  O1     O1        0.601327875374037    0.899643058021217    0.610661107846491  0.0000
  O1     O1        0.902231763862056    0.769402287445981    0.598752327891956  0.0000
  O1     O1        0.568174113207442    0.253180418591618    0.610592366208027  0.0000
  O3     O3        0.125636247100621    0.847913438283427    0.351300083912697  0.0000
  O3     O3        0.369705480923603    0.092669736538568    0.286505124876878  0.0000
  O1     O1        0.022112813779888    0.993361173219992    0.534325792843845  0.0000
  O1     O1        0.451586965805544    0.025608991594085    0.535418871980140  0.0000
  O1     O1        0.970359553094005    0.952191193224783    0.288868634812974  0.0000
  O1     O1        0.528177837185279    0.013699883991014    0.311021833878625  0.0000
  O1     O1        0.967081853571203    0.979676585638972    0.783405777362827  0.0000
  O1     O1        0.502428016244391    0.051637173571428    0.796143417807828  0.0000
  O1     O1        0.575542925946323    0.246051198475313    0.114679370253701  0.0000
  O3     O3        0.910179877729899    0.749296145561411    0.087348718875225  0.0000
  O3     O3        0.359408420477123    0.085730647912417    0.927088196601998  0.0000
  O1     O1        0.122423990877032    0.878165416707575    0.855400214444451  0.0000
  O1     O1        0.416219471629223    0.764517998806263    0.863594230852256  0.0000
  O1     O1        0.078357938458003    0.219344468596354    0.848807255644148  0.0000
  O1     O1        0.643067420701356    0.911775682459857    0.128886909911162  0.0000
  O1     O1        0.866279005909975    0.108568078165078    0.112721737098457  0.0000
  O1     O1        0.490113851639915    0.952111124756164    0.058543590255271  0.0000
  O1     O1        0.016401978906612    0.998957551910332    0.038931727945280  0.0000
  O3     O3        0.133386446456171    0.529540956278071    0.261661928557728  0.0000
  O3     O3        0.367102432593365    0.429546645374311    0.310968844402532  0.0000
  O1     O1        0.823080122294857    0.464620514652949    0.632263497247889  0.0000
  O1     O1        0.648473604142326    0.558319066266061    0.643196894766229  0.0000
  O3     O3        0.238212266544618    0.255988467308153    0.326601543095199  0.0000
  O3     O3        0.258096354357343    0.691806720648404    0.317318517543922  0.0000
  O1     O1        0.719205659480958    0.227977252700681    0.693682543935711  0.0000
  O1     O1        0.754946777947130    0.793461933789728    0.693576765187039  0.0000
  O1     O1        0.137491639680617    0.239864757830086    0.097772247293013  0.0000
  O1     O1        0.366630690290767    0.691884165625746    0.107934926162132  0.0000
  O1     O1        0.849276881595947    0.230231565734809    0.851643248451908  0.0000
  O1     O1        0.632040002305674    0.783760622822391    0.867526542536705  0.0000
  O3     O3        0.873478846022877    0.631551633163228    0.850931653818842  0.0000
  O1     O1        0.608463395757525    0.377184138941208    0.861858036944844  0.0000
  O3     O3        0.175100576479133    0.786303039410458    0.112945871515281  0.0000
  O2     O2        0.300159795959821    0.310942332229527    0.107561735584594  0.0000
  O1     O1        0.649965602049302    0.556193927523627    0.084542691314758  0.0000
  O3     O3        0.837845264805582    0.463452435447751    0.063928627434499  0.0000
  O3     O3        0.369691711116669    0.423615504172740    0.908625524921467  0.0000
  O1     O1        0.122945701519333    0.538525418171292    0.935046828078142  0.0000
  O1     O1        0.724146354488569    0.234470027069106    0.021715422655045  0.0000
  O3     O3        0.769375074438672    0.762921124678900    0.003105919553459  0.0000
  O3     O3        0.236084962938737    0.278738474910375    0.881553607376198  0.0000
  O1     O1        0.261116724676456    0.690678491445959    0.892886853231712  0.0000
