data_c00046.vasp
_audit_creation_method             Generated by GULP
_audit_author_name                 Salvador R. G. Balestra
_symmetry_space_group_name_H-M     'P 1             '
_symmetry_Int_Tables_number        1

loop_
_symmetry_equiv_pos_site_id
_symmetry_equiv_pos_as_xyz
_cell_length_a                       17.4641
_cell_length_b                        7.8566
_cell_length_c                       10.5355
_cell_angle_alpha                   89.9611
_cell_angle_beta                    91.1063
_cell_angle_gamma                   89.9225

loop_
_atom_site_label
_atom_site_type_symbol
_atom_site_fract_x
_atom_site_fract_y
_atom_site_fract_z
_atom_site_charge
  Ge     Ge        0.052090000000021    0.000000000000000    0.372269999999958  0.0000
  Ge     Ge        0.454830836468854    0.047792639611295    0.388206432494944  0.0000
  Ge     Ge        0.949792880564181    0.056387297080793    0.623607587657161  0.0000
  Ge     Ge        0.541201322158234    0.055551257412682    0.662571997132122  0.0000
  Ge     Ge        0.574896357679946    0.033419388584021    0.163764717192519  0.0000
  Ge     Ge        0.949605533047964    0.070421380384935    0.111493303115958  0.0000
  Ge     Ge        0.449966901802779    0.055030896162497    0.934317432253134  0.0000
  Ge     Ge        0.059064679381472    0.001452881400251    0.870455444767866  0.0000
  Ge     Ge        0.179515356680637    0.274725568541723    0.302245268221258  0.0000
  Ge     Ge        0.339354944156640    0.743864012556780    0.304085410823402  0.0000
  Ge     Ge        0.850338985559155    0.367681280267682    0.743061750961953  0.0000
  Ge     Ge        0.643730446717785    0.739744543297153    0.741105180744765  0.0000
  Ge     Ge        0.832168862412923    0.775928792864776    0.726350235287142  0.0000
  Ge     Ge        0.667952887354454    0.329017567267366    0.749019697769730  0.0000
  Ge     Ge        0.152435199559382    0.683408203464893    0.305880989357715  0.0000
  Ge     Ge        0.668172324686517    0.359501752017715    0.059275789947684  0.0000
  Ge     Ge        0.148797860024603    0.685453045921204    0.996726308929099  0.0000
  Ge     Ge        0.335016238416742    0.757615360395782    0.998635909673864  0.0000
  Ge     Ge        0.180169650268129    0.277354291456563    0.985782376175510  0.0000
  Ge     Ge        0.849304665839033    0.391956863848494    0.056213912881159  0.0000
  Si     Si        0.350468394126889    0.357177770550481    0.297976859634285  0.0000
  Si     Si        0.845899787844915    0.776013266396641    0.019629397910891  0.0000
  Si     Si        0.349833398141406    0.371488991352565    0.003802690938405  0.0000
  Si     Si        0.664827729574236    0.750451925367095    0.032304312159790  0.0000
  O1     O1        0.128979845719837    0.135701753309564    0.390395319772881  0.0000
  O1     O1        0.390501646100952    0.885680924701046    0.396023825239639  0.0000
  O1     O1        0.918956578296067    0.255055378694800    0.666310924012866  0.0000
  O1     O1        0.574711527509055    0.849091817088039    0.657028144823762  0.0000
  O1     O1        0.873777206447625    0.918728989058859    0.627976767044318  0.0000
  O1     O1        0.620840973556736    0.182414947928483    0.658290441531848  0.0000
  O1     O1        0.089172835970328    0.799100653081833    0.394182931833801  0.0000
  O3     O3        0.421563693285182    0.231347254570295    0.309406968494483  0.0000
  O1     O1        0.978976446077035    0.053327152528030    0.468221634885054  0.0000
  O1     O1        0.478296123984149    0.098942584545034    0.541244233259144  0.0000
  O1     O1        0.019831233051485    0.017436688119144    0.216645760636885  0.0000
  O1     O1        0.537667937339798    0.998908238908769    0.310335455033074  0.0000
  O1     O1        0.027722010779799    0.998553529428525    0.715012712348211  0.0000
  O1     O1        0.494355732047469    0.107309815540718    0.798635491636254  0.0000
  O1     O1        0.610527576517866    0.234993328044469    0.151170998955814  0.0000
  O3     O3        0.874719128821542    0.920168939144715    0.114304995971536  0.0000
  O3     O3        0.422759492454258    0.253593106478905    0.994878903591626  0.0000
  O1     O1        0.082712694678619    0.795510310569621    0.907813379218253  0.0000
  O1     O1        0.379014538064224    0.908419624230130    0.907305046119607  0.0000
  O1     O1        0.138405822323783    0.129024494586175    0.890131155208693  0.0000
  O3     O3        0.649628507015516    0.887280245161651    0.139657973181655  0.0000
  O1     O1        0.911201086600344    0.265908898811953    0.143293243045015  0.0000
  O1     O1        0.508286623240014    0.974615985965073    0.051171857613546  0.0000
  O1     O1        0.988099264253148    0.081107063033588    0.962944719106157  0.0000
  O1     O1        0.154290580939705    0.475625264074749    0.350504596601863  0.0000
  O3     O3        0.362939865631529    0.540004210851686    0.362062618355701  0.0000
  O1     O1        0.870597498414871    0.577387549838277    0.713766261771495  0.0000
  O1     O1        0.626124694102289    0.527328479701954    0.733956621929490  0.0000
  O3     O3        0.276537185272871    0.254361100149547    0.342990949857050  0.0000
  O1     O1        0.242789099700923    0.772494804735292    0.316564565691464  0.0000
  O1     O1        0.758355951614186    0.332228006219387    0.688929138590832  0.0000
  O1     O1        0.735885464822320    0.777660948024837    0.693657167172564  0.0000
  O1     O1        0.161938051507156    0.236353694849423    0.143175190288003  0.0000
  O1     O1        0.366509298958010    0.792083701617535    0.152246375587441  0.0000
  O1     O1        0.846745607708193    0.320589324153628    0.901902901089493  0.0000
  O3     O3        0.634708300840590    0.816847577752320    0.895762895133392  0.0000
  O3     O3        0.860064737714772    0.844125362524466    0.878350214551202  0.0000
  O1     O1        0.667383358303463    0.276957141676264    0.908172547006690  0.0000
  O1     O1        0.121038609641819    0.692223675189326    0.150899558139842  0.0000
  O2     O2        0.327958821128042    0.419187436976206    0.151721454037325  0.0000
  O3     O3        0.630366036459005    0.565123897085587    0.060268017728652  0.0000
  O3     O3        0.886473666314360    0.597535252025155    0.055217585943815  0.0000
  O3     O3        0.359472493094244    0.555669156069797    0.941494186701761  0.0000
  O1     O1        0.150116252361675    0.478624253494349    0.946094687940358  0.0000
  O1     O1        0.760157727063485    0.364620771330717    0.119095091224801  0.0000
  O2     O2        0.756552361230045    0.715343534285086    0.017836089028481  0.0000
  O3     O3        0.277239650960080    0.266922508312242    0.951284132513885  0.0000
  O1     O1        0.237865756401071    0.779246381489965    0.987027710856820  0.0000
