data_c00060.vasp
_audit_creation_method             Generated by GULP
_audit_author_name                 Salvador R. G. Balestra
_symmetry_space_group_name_H-M     'P 1             '
_symmetry_Int_Tables_number        1

loop_
_symmetry_equiv_pos_site_id
_symmetry_equiv_pos_as_xyz
_cell_length_a                       17.6574
_cell_length_b                        7.9161
_cell_length_c                       10.3012
_cell_angle_alpha                   86.6767
_cell_angle_beta                    90.5627
_cell_angle_gamma                   90.2444

loop_
_atom_site_label
_atom_site_type_symbol
_atom_site_fract_x
_atom_site_fract_y
_atom_site_fract_z
_atom_site_charge
  Ge     Ge        0.052090000000021    0.000000000000000    0.372269999999958  0.0000
  Ge     Ge        0.446351504395410    0.050451749317285    0.357585543923304  0.0000
  Ge     Ge        0.944675941334583    0.057254660011111    0.616002777927461  0.0000
  Ge     Ge        0.540922986518611    0.049848660821416    0.621822105002162  0.0000
  Ge     Ge        0.565843995812691    0.007442623432246    0.136883562924894  0.0000
  Ge     Ge        0.939619440382694    0.025361552832856    0.125561175496537  0.0000
  Ge     Ge        0.447819465163724    0.082703674056312    0.894015882414764  0.0000
  Ge     Ge        0.047940376081671    0.041206033241241    0.875398708857724  0.0000
  Ge     Ge        0.174311070161050    0.290648222297834    0.259201448609062  0.0000
  Ge     Ge        0.333995402744645    0.749845410331739    0.262929762095502  0.0000
  Ge     Ge        0.840133978204719    0.351640578837396    0.691697823133608  0.0000
  Ge     Ge        0.647001559183451    0.736968894409060    0.707216779884526  0.0000
  Ge     Ge        0.829154359257268    0.761243709273897    0.699261763719853  0.0000
  Ge     Ge        0.659329964031584    0.324874917224836    0.699888588861532  0.0000
  Ge     Ge        0.148493773165220    0.693709360873685    0.265724311120612  0.0000
  Ge     Ge        0.841841359892068    0.714551820358986    0.016304198781942  0.0000
  Ge     Ge        0.148537057728720    0.722801449807191    0.950316280457196  0.0000
  Ge     Ge        0.331773862204306    0.781264546293944    0.951809581868793  0.0000
  Ge     Ge        0.171952104139524    0.321599922455728    0.934718638765053  0.0000
  Ge     Ge        0.654207118263869    0.694874841354413    0.024161776644584  0.0000
  Si     Si        0.345962320145627    0.362696802525231    0.250631190361290  0.0000
  Si     Si        0.661475392970305    0.309564283164803    0.001466315819665  0.0000
  Si     Si        0.342959812341058    0.394497266306499    0.940465874712578  0.0000
  Si     Si        0.842435502206462    0.329653034064096    0.994132592479252  0.0000
  O1     O1        0.127976531556883    0.130202178939602    0.340817499547909  0.0000
  O1     O1        0.383277966999336    0.886692368713228    0.355987542922692  0.0000
  O1     O1        0.897721230185601    0.246509873547489    0.590675122799206  0.0000
  O1     O1        0.583643466400429    0.855361468695372    0.614580663395861  0.0000
  O1     O1        0.882166377441600    0.893170758433279    0.598972656716830  0.0000
  O1     O1        0.607184515773526    0.208370699226387    0.597435501237055  0.0000
  O1     O1        0.084294484911277    0.798248592074513    0.355767398482235  0.0000
  O3     O3        0.415667050493067    0.240745731683812    0.281598665124250  0.0000
  O1     O1        0.024563669166508    0.032040564068359    0.528751274646317  0.0000
  O1     O1        0.465108874726873    0.075522122980210    0.520034930283261  0.0000
  O1     O1        0.971249204924185    0.044660577080769    0.282076562325734  0.0000
  O1     O1        0.534170260954342    0.016380538299555    0.293281849131831  0.0000
  O1     O1        0.971156137957340    0.060262785988216    0.777762689734002  0.0000
  O1     O1        0.515166702241385    0.072220909671949    0.780844735611715  0.0000
  O3     O3        0.638135330793173    0.150802971531850    0.094975546873646  0.0000
  O1     O1        0.898542651985014    0.830721300734854    0.112650899835324  0.0000
  O3     O3        0.413238485532254    0.289310166555070    0.896886741055379  0.0000
  O1     O1        0.088316603028590    0.846865285602016    0.857586279112030  0.0000
  O1     O1        0.378302270956438    0.937107266455646    0.862591193686183  0.0000
  O1     O1        0.117306105363948    0.192677795460251    0.846215432282576  0.0000
  O1     O1        0.601940549319653    0.808907999986238    0.125978172348620  0.0000
  O3     O3        0.869190963628757    0.172908576518112    0.086057151814207  0.0000
  O1     O1        0.485239177776920    0.041869184515251    0.046602963177735  0.0000
  O1     O1        0.018655919247083    0.057521835315452    0.033708721962189  0.0000
  O1     O1        0.150612298096126    0.483291449914185    0.315330137578088  0.0000
  O3     O3        0.353174440763244    0.540424901601699    0.317034679702656  0.0000
  O1     O1        0.835340682107754    0.561010300316777    0.644044341456443  0.0000
  O1     O1        0.651288059515776    0.536329337714525    0.655195038218431  0.0000
  O3     O3        0.270351289507812    0.261013938419758    0.291957644044007  0.0000
  O1     O1        0.238208507895952    0.779815555914693    0.274409846446034  0.0000
  O1     O1        0.751594976148901    0.262641626242904    0.687333898350212  0.0000
  O1     O1        0.736569944789718    0.824015252407813    0.698115503969109  0.0000
  O1     O1        0.153617414395267    0.282036123984220    0.096994337665963  0.0000
  O1     O1        0.365732196351391    0.793640021891132    0.108265801987883  0.0000
  O3     O3        0.876604225125009    0.328268804808379    0.850647503411512  0.0000
  O1     O1        0.621816109315807    0.737598030835875    0.868390083632281  0.0000
  O1     O1        0.863528443796557    0.762711055531591    0.856550546317260  0.0000
  O3     O3        0.625577470855919    0.293024766179142    0.859221462896328  0.0000
  O1     O1        0.116588837464065    0.709045910592663    0.107697133170689  0.0000
  O2     O2        0.334754469989967    0.419532211648854    0.096606409424271  0.0000
  O3     O3        0.637307918632777    0.481576656576203    0.064411102008622  0.0000
  O3     O3        0.864237537617224    0.503988353203925    0.056901299645248  0.0000
  O3     O3        0.347202666148816    0.587250522395142    0.883530495006099  0.0000
  O1     O1        0.151984098782755    0.528498706786250    0.888499010119314  0.0000
  O2     O2        0.751265594799966    0.330915112870317    0.972074171645908  0.0000
  O1     O1        0.747645777584242    0.750117422032166    0.040353392980238  0.0000
  O3     O3        0.267292939570427    0.295382833592178    0.901001616315192  0.0000
  O1     O1        0.236572319900165    0.817380786286912    0.953900033803678  0.0000
