data_c00053.vasp
_audit_creation_method             Generated by GULP
_audit_author_name                 Salvador R. G. Balestra
_symmetry_space_group_name_H-M     'P 1             '
_symmetry_Int_Tables_number        1

loop_
_symmetry_equiv_pos_site_id
_symmetry_equiv_pos_as_xyz
_cell_length_a                       16.8976
_cell_length_b                        7.8698
_cell_length_c                       10.5575
_cell_angle_alpha                   81.0258
_cell_angle_beta                    90.8100
_cell_angle_gamma                   89.3972

loop_
_atom_site_label
_atom_site_type_symbol
_atom_site_fract_x
_atom_site_fract_y
_atom_site_fract_z
_atom_site_charge
  Ge     Ge        0.052090000000021    0.000000000000000    0.372269999999958  0.0000
  Ge     Ge        0.471101700684195    0.982464063086643    0.356499366328416  0.0000
  Ge     Ge        0.969681836656424    0.098694912946134    0.629073152314505  0.0000
  Ge     Ge        0.542706906369626    0.087683565121292    0.625171825576168  0.0000
  Ge     Ge        0.557606409960172    0.963514278296636    0.084259727478049  0.0000
  Ge     Ge        0.935085110193685    0.959637078754159    0.133721659640037  0.0000
  Ge     Ge        0.422772725434836    0.113489091416579    0.858544379301447  0.0000
  Ge     Ge        0.056388569687086    0.136460636787030    0.904648525973624  0.0000
  Ge     Ge        0.169245218142124    0.321115479371755    0.283105012454745  0.0000
  Ge     Ge        0.352641042618793    0.704994374655396    0.286662133249501  0.0000
  Ge     Ge        0.845576463457926    0.364971323770029    0.702739363519868  0.0000
  Ge     Ge        0.667064909518527    0.772983062892310    0.712258365581390  0.0000
  Ge     Ge        0.850235533157488    0.778333674621208    0.730675589870102  0.0000
  Ge     Ge        0.650698709367234    0.389676490101121    0.676808045722649  0.0000
  Ge     Ge        0.158703240974189    0.697644032104307    0.329131592642679  0.0000
  Ge     Ge        0.836109977021937    0.664108434368249    0.040233657389825  0.0000
  Ge     Ge        0.325750302621272    0.414706653950001    0.954197764834156  0.0000
  Ge     Ge        0.150647009787258    0.827168937589848    0.029811809405938  0.0000
  Ge     Ge        0.142814379315709    0.466507260356654    0.975072157356470  0.0000
  Ge     Ge        0.654176606909178    0.631263294271192    0.020445706349358  0.0000
  Si     Si        0.348771549020296    0.301756415774723    0.257867121709325  0.0000
  Si     Si        0.654464213654960    0.272456890420682    0.971174342580194  0.0000
  Si     Si        0.338658564590925    0.790439468161911    0.000278366743525  0.0000
  Si     Si        0.841180910959010    0.281974157859911    0.992673232676507  0.0000
  O1     O1        0.110380121249121    0.151474769066823    0.278651013952336  0.0000
  O1     O1        0.412753096358669    0.804059748763772    0.383796031197929  0.0000
  O1     O1        0.899690901362230    0.260023760095708    0.602621319632485  0.0000
  O1     O1        0.603679339649415    0.937436412039389    0.720331908216831  0.0000
  O1     O1        0.925456555216261    0.902431608923484    0.662637034555135  0.0000
  O1     O1        0.591362288425981    0.277772632170057    0.585071493877784  0.0000
  O1     O1        0.105464711059714    0.815647190745006    0.425148561738289  0.0000
  O3     O3        0.416590892223048    0.170813709618361    0.318417800153627  0.0000
  O1     O1        0.028365669545812    0.101186239426105    0.499113484050033  0.0000
  O1     O1        0.525718371988647    0.994901559189703    0.491710460615679  0.0000
  O1     O1        0.968112392807529    0.973272273272474    0.285355345210846  0.0000
  O1     O1        0.539707631703322    0.958454353686302    0.241508145363908  0.0000
  O1     O1        0.033659910555396    0.141188274271698    0.749141597289766  0.0000
  O1     O1        0.457590999971549    0.104980968077376    0.708514882499796  0.0000
  O3     O3        0.643934968642284    0.083981303100544    0.046432852442194  0.0000
  O1     O1        0.894839881990019    0.760551711914743    0.141576697177529  0.0000
  O1     O1        0.378887620725180    0.310310528007975    0.852236326841492  0.0000
  O1     O1        0.146236894431029    0.028102641352251    0.944595012592201  0.0000
  O3     O3        0.351730730837749    0.952681401709301    0.893929272463982  0.0000
  O1     O1        0.065951275627793    0.338898630582791    0.941973962329914  0.0000
  O1     O1        0.577711566204643    0.759927717363554    0.052620201135727  0.0000
  O3     O3        0.861302111532710    0.119895041438709    0.096463304519135  0.0000
  O1     O1        0.491330159005813    0.077755549185487    0.980412795933750  0.0000
  O1     O1        0.003833122452696    0.994857522922086    0.015073577869322  0.0000
  O1     O1        0.143047060659680    0.481525669811928    0.371066917476419  0.0000
  O3     O3        0.372013412640100    0.490009441328466    0.286684484691601  0.0000
  O1     O1        0.868929621041568    0.574962460015165    0.697376749207158  0.0000
  O1     O1        0.635171195033425    0.606590395267985    0.634322741554456  0.0000
  O3     O3        0.265334408813366    0.248959702477284    0.324135666796129  0.0000
  O1     O1        0.258479856557791    0.736328700049845    0.335238459164799  0.0000
  O1     O1        0.748862970051532    0.341223546305550    0.660670754033742  0.0000
  O1     O1        0.759217652410973    0.844248609061943    0.662615770597639  0.0000
  O1     O1        0.171782767857285    0.447321430701657    0.134772752116377  0.0000
  O3     O3        0.383179841328108    0.809250031017357    0.134966511359772  0.0000
  O3     O3        0.878743292814079    0.259287589061089    0.855642834028777  0.0000
  O1     O1        0.684942367096702    0.657448875961476    0.863354976462267  0.0000
  O1     O1        0.848130698622417    0.788059313294181    0.892050606372181  0.0000
  O3     O3        0.616751259349253    0.297504643249963    0.828333890302480  0.0000
  O1     O1        0.116815913964459    0.801499740622349    0.184619485019323  0.0000
  O3     O3        0.338774650650677    0.295722875480087    0.106521270749211  0.0000
  O3     O3        0.621114541614605    0.419147565956935    0.048561979896400  0.0000
  O3     O3        0.871126495223893    0.455753991413577    0.039065097646488  0.0000
  O3     O3        0.365647451796461    0.617979277013044    0.947237234947225  0.0000
  O1     O1        0.111130438989473    0.676483066792634    0.943555338748121  0.0000
  O2     O2        0.748488453809840    0.317735415637448    0.953565627612490  0.0000
  O1     O1        0.741289626511036    0.663056526993163    0.098798550025677  0.0000
  O1     O1        0.228891638711987    0.421390140093526    0.900720382911148  0.0000
  O3     O3        0.249491626416819    0.755072870424163    0.048800914621038  0.0000
