data_c00019.vasp
_audit_creation_method             Generated by GULP
_audit_author_name                 Salvador R. G. Balestra
_symmetry_space_group_name_H-M     'P 1             '
_symmetry_Int_Tables_number        1

loop_
_symmetry_equiv_pos_site_id
_symmetry_equiv_pos_as_xyz
_cell_length_a                       17.6993
_cell_length_b                        7.7974
_cell_length_c                       10.2722
_cell_angle_alpha                   89.0769
_cell_angle_beta                    90.2727
_cell_angle_gamma                   90.7417

loop_
_atom_site_label
_atom_site_type_symbol
_atom_site_fract_x
_atom_site_fract_y
_atom_site_fract_z
_atom_site_charge
  Ge     Ge        0.052090000000021    0.000000000000000    0.372269999999958  0.0000
  Ge     Ge        0.450178603709152    0.046476128133563    0.364615739802269  0.0000
  Ge     Ge        0.950408802540383    0.052344321791855    0.627130535491247  0.0000
  Ge     Ge        0.552780377552079    0.007325162950597    0.622577078687174  0.0000
  Ge     Ge        0.554985863125443    0.992034265389275    0.111317967469507  0.0000
  Ge     Ge        0.948692372951994    0.054084734247132    0.114044896908307  0.0000
  Ge     Ge        0.446135682754757    0.060971778974996    0.866502859672138  0.0000
  Ge     Ge        0.058966010167745    0.002802166690607    0.870881903512771  0.0000
  Ge     Ge        0.176036606549217    0.279941730131908    0.298265600049205  0.0000
  Ge     Ge        0.329239388780409    0.758470660495071    0.302887178523301  0.0000
  Ge     Ge        0.854882762596338    0.364149730290001    0.743352877594196  0.0000
  Ge     Ge        0.648258699609753    0.692301019239670    0.741669948623964  0.0000
  Ge     Ge        0.827043217765671    0.769873121133503    0.735550788186242  0.0000
  Ge     Ge        0.676139780172729    0.286390318592894    0.735411683217799  0.0000
  Ge     Ge        0.150571012689060    0.683335341682878    0.307251061911257  0.0000
  Ge     Ge        0.673976472350278    0.289736062368385    0.050415083208666  0.0000
  Ge     Ge        0.829550921479607    0.758992458189072    0.050850154341620  0.0000
  Ge     Ge        0.354540879964012    0.372941131826495    0.985772682658017  0.0000
  Ge     Ge        0.326535778177035    0.776630984049540    0.986408184633019  0.0000
  Ge     Ge        0.175679617115131    0.294859882347388    0.982835452543771  0.0000
  Si     Si        0.351526219252232    0.360783669756554    0.296579448614209  0.0000
  Si     Si        0.151405985475642    0.694065921718169    0.995313257994497  0.0000
  Si     Si        0.654143116730696    0.683544737730869    0.053564906643505  0.0000
  Si     Si        0.849317545851169    0.365015381015182    0.054859873723359  0.0000
  O1     O1        0.129644522815534    0.133110283453149    0.393625226779709  0.0000
  O1     O1        0.382564843007449    0.891200710468055    0.397905373645279  0.0000
  O1     O1        0.925978297246137    0.256827373305508    0.669634658302771  0.0000
  O1     O1        0.577433577525125    0.800812115335462    0.664718882323078  0.0000
  O1     O1        0.874068780315984    0.917458176377402    0.640861195375414  0.0000
  O1     O1        0.628891248979375    0.141579367309472    0.641679349848602  0.0000
  O1     O1        0.083071928356871    0.792571947650711    0.389322108180737  0.0000
  O3     O3        0.411731042299114    0.249602292501625    0.377155757536809  0.0000
  O1     O1        0.977215657865445    0.049707473038598    0.465741021959947  0.0000
  O1     O1        0.527586748965112    0.020089469195919    0.460530649803194  0.0000
  O1     O1        0.024920326574594    0.027700009187397    0.211390562294947  0.0000
  O1     O1        0.478089242593548    0.021004076616100    0.205444792815676  0.0000
  O1     O1        0.029260372495018    0.988190473638052    0.711873325564525  0.0000
  O1     O1        0.473384853834165    0.064352360910177    0.706385631052651  0.0000
  O1     O1        0.622704559402636    0.147299922526388    0.142009942804557  0.0000
  O1     O1        0.880758489178233    0.897393461119861    0.143501054374614  0.0000
  O1     O1        0.424528878184748    0.267292120080483    0.908956487014401  0.0000
  O3     O3        0.088445838319951    0.800358065971797    0.918571535379177  0.0000
  O1     O1        0.368159157653388    0.930866225422372    0.890540368999578  0.0000
  O1     O1        0.127558266487986    0.159135062953722    0.882210711296982  0.0000
  O3     O3        0.595169362530956    0.791326457744610    0.135039647063395  0.0000
  O3     O3        0.908409035085908    0.253960202057206    0.136541290352497  0.0000
  O1     O1        0.523851857981108    0.993881628212683    0.952334891598970  0.0000
  O1     O1        0.979230623508697    0.052389902739394    0.955529671610427  0.0000
  O1     O1        0.158154198124107    0.477890860260613    0.363077476612317  0.0000
  O3     O3        0.339907285641149    0.546378206438449    0.356832356602142  0.0000
  O1     O1        0.843683963218814    0.566538138908264    0.679546025488527  0.0000
  O1     O1        0.659659429032743    0.492025644581989    0.679142537533084  0.0000
  O3     O3        0.272922024192097    0.252520246207628    0.294702260547627  0.0000
  O1     O1        0.234557436356377    0.796689810946617    0.316418321917435  0.0000
  O1     O1        0.771537921350789    0.249808449491493    0.729778878155275  0.0000
  O1     O1        0.731706380925276    0.806617165238011    0.728734506698025  0.0000
  O1     O1        0.145179810185120    0.262712747825615    0.139435730153853  0.0000
  O1     O1        0.357725735471881    0.790452570502671    0.144331791138416  0.0000
  O3     O3        0.875629328473956    0.394058475819780    0.906098955254519  0.0000
  O3     O3        0.627451866449281    0.659588595891611    0.904649105359065  0.0000
  O1     O1        0.859141362532594    0.788693446945499    0.893263368229212  0.0000
  O1     O1        0.643858489248040    0.264243946825327    0.892799252556617  0.0000
  O3     O3        0.126335855517539    0.665968327466003    0.143915838288071  0.0000
  O3     O3        0.378443994949626    0.391173981290232    0.148753681205184  0.0000
  O3     O3        0.661848571993877    0.493721924433115    0.112711884597424  0.0000
  O3     O3        0.841557016426432    0.552374576486258    0.113680745392333  0.0000
  O1     O1        0.346702717462840    0.578030011151785    0.925858421087949  0.0000
  O3     O3        0.162818653157450    0.508064236828237    0.934243655498778  0.0000
  O3     O3        0.770401728901886    0.257804034235949    0.053086468723379  0.0000
  O3     O3        0.732985310242864    0.790800511442137    0.052649416548096  0.0000
  O1     O1        0.270888397232805    0.260336464316435    0.971568191496126  0.0000
  O3     O3        0.229460754834099    0.803205281999576    0.989174457406619  0.0000
