data_c00059.vasp
_audit_creation_method             Generated by GULP
_audit_author_name                 Salvador R. G. Balestra
_symmetry_space_group_name_H-M     'P 1             '
_symmetry_Int_Tables_number        1

loop_
_symmetry_equiv_pos_site_id
_symmetry_equiv_pos_as_xyz
_cell_length_a                       17.5789
_cell_length_b                        7.8705
_cell_length_c                       10.3536
_cell_angle_alpha                   88.6092
_cell_angle_beta                    90.8332
_cell_angle_gamma                   88.4262

loop_
_atom_site_label
_atom_site_type_symbol
_atom_site_fract_x
_atom_site_fract_y
_atom_site_fract_z
_atom_site_charge
  Ge     Ge        0.052090000000021    0.000000000000000    0.372269999999958  0.0000
  Ge     Ge        0.446900127087004    0.960469434952364    0.397855439252642  0.0000
  Ge     Ge        0.947670669708474    0.950409832988813    0.623440704874917  0.0000
  Ge     Ge        0.545028466533506    0.005826267771134    0.658712443549142  0.0000
  Ge     Ge        0.557006208669869    0.996260505663738    0.159131760658113  0.0000
  Ge     Ge        0.949594435282294    0.932176036691519    0.116881568401357  0.0000
  Ge     Ge        0.442249248586710    0.961449006143380    0.915801439310307  0.0000
  Ge     Ge        0.054932296957010    0.005590722573465    0.870563361318346  0.0000
  Ge     Ge        0.150706329243041    0.312821654163375    0.296895736276811  0.0000
  Ge     Ge        0.354043346102673    0.647447940646091    0.284112894779253  0.0000
  Ge     Ge        0.825374264297431    0.237217663087639    0.732103413825190  0.0000
  Ge     Ge        0.669898055722351    0.720203225168620    0.733779361660056  0.0000
  Ge     Ge        0.851348641370357    0.638462098455770    0.738719450916248  0.0000
  Ge     Ge        0.644932703851243    0.316433690872724    0.730074211600169  0.0000
  Ge     Ge        0.172904370585493    0.714295314682391    0.297353132446582  0.0000
  Ge     Ge        0.852623605855801    0.619063827505395    0.054562918061257  0.0000
  Ge     Ge        0.326479218045329    0.264939633766732    0.976209020182208  0.0000
  Ge     Ge        0.142130068099109    0.325077068765149    0.983325040105630  0.0000
  Ge     Ge        0.671145243056653    0.700091913785595    0.046645231567580  0.0000
  Ge     Ge        0.825908832828875    0.222555529282888    0.045564544487732  0.0000
  Si     Si        0.329782882813489    0.250246102905871    0.282700739934061  0.0000
  Si     Si        0.648099527185908    0.304045553598764    0.037123569871180  0.0000
  Si     Si        0.165469127117885    0.715693273096053    0.993305543552453  0.0000
  Si     Si        0.344298455569791    0.653446455532341    0.982104721518428  0.0000
  O1     O1        0.091971731586864    0.194665698297210    0.391495970360220  0.0000
  O1     O1        0.420307258742357    0.756027154835236    0.368535578199960  0.0000
  O1     O1        0.874221324254079    0.094423159827889    0.641076421883723  0.0000
  O1     O1        0.619987232611602    0.863848437533430    0.637326749575226  0.0000
  O1     O1        0.918252014564809    0.748375957115008    0.655197135927834  0.0000
  O1     O1        0.577778515689508    0.209493768994629    0.645889010946093  0.0000
  O1     O1        0.124133141659175    0.849232846519744    0.393933565714346  0.0000
  O3     O3        0.373656905214165    0.106894135508293    0.368183297299632  0.0000
  O1     O1        0.974888511764311    0.964689690639908    0.464076607341550  0.0000
  O1     O1        0.469419153924407    0.973761893026360    0.559527471000380  0.0000
  O1     O1        0.023248820407323    0.985838284211699    0.212321422388638  0.0000
  O1     O1        0.528526229800694    0.005464366989683    0.316885896289859  0.0000
  O1     O1        0.028271013377562    0.994081750142904    0.711306082800580  0.0000
  O1     O1        0.517364185277569    0.969663255501097    0.816433494425402  0.0000
  O3     O3        0.588839653563963    0.196109364344803    0.117588207956993  0.0000
  O1     O1        0.917752829480378    0.729385421655630    0.141618247131102  0.0000
  O1     O1        0.379149863973540    0.129616287398581    0.886451425288414  0.0000
  O3     O3        0.133293008349375    0.871907979605111    0.906674504749140  0.0000
  O3     O3        0.389252319607949    0.780225128231341    0.891742467705195  0.0000
  O1     O1        0.078753039761808    0.212753151526892    0.895608531699859  0.0000
  O1     O1        0.624659096380316    0.836703261123755    0.146218948745541  0.0000
  O1     O1        0.871653290943754    0.068202326915540    0.135900825416733  0.0000
  O1     O1        0.476287149813784    0.956039555146033    0.071812349233010  0.0000
  O1     O1        0.977874231951494    0.947508852358361    0.957777253737071  0.0000
  O1     O1        0.157686781232097    0.511111825776066    0.355291667776824  0.0000
  O3     O3        0.345542512956698    0.437662515603399    0.335939076513810  0.0000
  O1     O1        0.838835150992464    0.441795069978285    0.675187612208555  0.0000
  O1     O1        0.655067378893920    0.519638556648648    0.674753690778449  0.0000
  O3     O3        0.240313327122160    0.216073917511056    0.286539443074031  0.0000
  O1     O1        0.267978144157667    0.751522248053996    0.303150371348125  0.0000
  O1     O1        0.729565856674606    0.201911225821056    0.724354277287700  0.0000
  O1     O1        0.766001507382716    0.752698863588406    0.733535622835355  0.0000
  O1     O1        0.115210295774116    0.317880710552220    0.141210655437604  0.0000
  O3     O3        0.382080957703003    0.645591769309347    0.124786652350263  0.0000
  O1     O1        0.857825213754941    0.216685259626419    0.889186678059604  0.0000
  O1     O1        0.638963991947488    0.732702790844209    0.890976072508700  0.0000
  O1     O1        0.880443223526569    0.607971877326430    0.896153361824874  0.0000
  O3     O3        0.618021009057313    0.328341428282863    0.890634997358524  0.0000
  O3     O3        0.136206106508288    0.729585012023499    0.139442668255721  0.0000
  O3     O3        0.357298261750695    0.239659398614755    0.135599873798477  0.0000
  O3     O3        0.658720930040129    0.488809288024689    0.095864686730861  0.0000
  O1     O1        0.844762566755361    0.415954998032215    0.112618842586795  0.0000
  O3     O3        0.344261094373503    0.469798099185058    0.920860097537195  0.0000
  O3     O3        0.140832519645325    0.538145342456424    0.933706345299287  0.0000
  O3     O3        0.728397346726747    0.198997729765291    0.038545771766815  0.0000
  O1     O1        0.766956707229149    0.731021636815694    0.054775320217963  0.0000
  O1     O1        0.231144913930314    0.234159599545427    0.963516231473895  0.0000
  O2     O2        0.257158821442645    0.717764791942808    0.005372360857454  0.0000
