data_c00052.vasp
_audit_creation_method             Generated by GULP
_audit_author_name                 Salvador R. G. Balestra
_symmetry_space_group_name_H-M     'P 1             '
_symmetry_Int_Tables_number        1

loop_
_symmetry_equiv_pos_site_id
_symmetry_equiv_pos_as_xyz
_cell_length_a                       17.5863
_cell_length_b                        7.8093
_cell_length_c                       10.3893
_cell_angle_alpha                   89.6407
_cell_angle_beta                    90.2357
_cell_angle_gamma                   88.4953

loop_
_atom_site_label
_atom_site_type_symbol
_atom_site_fract_x
_atom_site_fract_y
_atom_site_fract_z
_atom_site_charge
  Ge     Ge        0.052090000000021    0.000000000000000    0.372269999999958  0.0000
  Ge     Ge        0.449487188268463    0.951044671848598    0.395730038153298  0.0000
  Ge     Ge        0.948441341408253    0.959941725708491    0.627500480217736  0.0000
  Ge     Ge        0.547699632399741    0.012998267200398    0.653743418342863  0.0000
  Ge     Ge        0.558012146872087    0.998234458461858    0.153733891969615  0.0000
  Ge     Ge        0.946160964291254    0.938214412458616    0.119611641871642  0.0000
  Ge     Ge        0.447521313370021    0.937252562731897    0.910175467067376  0.0000
  Ge     Ge        0.053975803605016    0.999448609553136    0.874961791384401  0.0000
  Ge     Ge        0.152462787812312    0.313197696851669    0.303374643673058  0.0000
  Ge     Ge        0.357284029457516    0.632502529122021    0.282944577713278  0.0000
  Ge     Ge        0.825325678717407    0.244036931002856    0.732363454048877  0.0000
  Ge     Ge        0.673028513755644    0.731985329629318    0.738728903777270  0.0000
  Ge     Ge        0.853039009276557    0.647116085447722    0.745221026658276  0.0000
  Ge     Ge        0.644595928130611    0.323316841054663    0.730360793301750  0.0000
  Ge     Ge        0.175265063511297    0.715689650983709    0.293102402133138  0.0000
  Ge     Ge        0.846724735797376    0.625819711926459    0.059717321689614  0.0000
  Ge     Ge        0.321388207289205    0.221663091206207    0.982670517516133  0.0000
  Ge     Ge        0.170673168326361    0.701862207200835    0.983427215152431  0.0000
  Ge     Ge        0.352804574776046    0.619914339147784    0.973101883705913  0.0000
  Ge     Ge        0.823812267937091    0.229114725352016    0.043190723725269  0.0000
  Si     Si        0.328517233590150    0.236608488450093    0.289839568178870  0.0000
  Si     Si        0.645401801905931    0.309639488556487    0.031834283398734  0.0000
  Si     Si        0.145529422085106    0.304866492093335    0.995393148970258  0.0000
  Si     Si        0.669759810151898    0.705999813499776    0.042422316394271  0.0000
  O1     O1        0.087865995824110    0.201672566834977    0.389730179841201  0.0000
  O1     O1        0.421842171643588    0.745174402785983    0.370158759336945  0.0000
  O1     O1        0.872505398710719    0.100136622411106    0.636535354707517  0.0000
  O1     O1        0.624009161092136    0.870893385528886    0.640757438317076  0.0000
  O1     O1        0.922866501879168    0.756347650561297    0.668820296761833  0.0000
  O1     O1        0.580170225012898    0.217533642229727    0.637795598639143  0.0000
  O1     O1        0.127624140622760    0.857670654504824    0.389683282201433  0.0000
  O3     O3        0.374923730660221    0.095074738412393    0.370807385415300  0.0000
  O1     O1        0.977562843210133    0.958740274899858    0.469044274895977  0.0000
  O1     O1        0.473731517600768    0.968343296056599    0.556120365872965  0.0000
  O1     O1        0.020589598734438    0.985222278644666    0.214768935141759  0.0000
  O1     O1        0.529964631960215    0.999532923705267    0.311925959069020  0.0000
  O1     O1        0.024811160727366    0.021853764362952    0.717701952493063  0.0000
  O1     O1        0.518869410844978    0.990646823999009    0.811880648886484  0.0000
  O3     O3        0.590236434393798    0.202523018849273    0.121625974480040  0.0000
  O1     O1        0.909298111526772    0.739153487269675    0.148778566003846  0.0000
  O1     O1        0.367159734846480    0.069937587412565    0.895605652478593  0.0000
  O1     O1        0.124860674095640    0.844616491776297    0.882993141814714  0.0000
  O1     O1        0.415797312546207    0.734115570153095    0.883567068398781  0.0000
  O3     O3        0.080784025797136    0.200749115512681    0.925069861846536  0.0000
  O3     O3        0.625594693798775    0.834214264246039    0.136534499327285  0.0000
  O1     O1        0.869053128949071    0.077923348256206    0.135148293978747  0.0000
  O1     O1        0.478140220133860    0.957578382404650    0.067338328661807  0.0000
  O1     O1        0.976585036127046    0.939708012438267    0.962026792169206  0.0000
  O1     O1        0.159927481233008    0.515369892844370    0.358690089546519  0.0000
  O3     O3        0.344536644744582    0.426771691651728    0.342322464089479  0.0000
  O1     O1        0.840231306560499    0.449591594098055    0.678464698772345  0.0000
  O1     O1        0.656425211258976    0.528412567395854    0.681918239713018  0.0000
  O3     O3        0.239255993577427    0.202045849027643    0.303533857448139  0.0000
  O1     O1        0.271271961854183    0.743224365979273    0.288051269852841  0.0000
  O1     O1        0.729577292690855    0.209698318288492    0.726596842909717  0.0000
  O1     O1        0.768582865881923    0.765660302257171    0.735739519676311  0.0000
  O3     O3        0.123837516257140    0.331136638179826    0.143756065155882  0.0000
  O1     O1        0.388074924698101    0.616711939061558    0.128288053282023  0.0000
  O1     O1        0.857913935285536    0.218755727331196    0.888246909973151  0.0000
  O3     O3        0.640858234244421    0.742898177443241    0.897397419427507  0.0000
  O1     O1        0.877019386619697    0.611992207604120    0.902824141297741  0.0000
  O3     O3        0.611884342765028    0.319355829775364    0.888635198650068  0.0000
  O1     O1        0.139316796558740    0.732708714595367    0.138251381263462  0.0000
  O3     O3        0.353024350951775    0.225935197075881    0.141008398475636  0.0000
  O2     O2        0.656212772156120    0.505495885467103    0.080016807344405  0.0000
  O1     O1        0.840785263464979    0.422346963983549    0.116040957312542  0.0000
  O1     O1        0.341546037153180    0.418658249756366    0.916311069329002  0.0000
  O3     O3        0.155095517613628    0.492220342973881    0.934000494754478  0.0000
  O3     O3        0.726364053334996    0.209016408181770    0.031730609105876  0.0000
  O3     O3        0.759155131673901    0.735260631223890    0.053186350560402  0.0000
  O3     O3        0.224233867359240    0.194240319538799    0.982834340693836  0.0000
  O1     O1        0.266532937212803    0.729855769058238    0.979173765153801  0.0000
