data_c00020.vasp
_audit_creation_method             Generated by GULP
_audit_author_name                 Salvador R. G. Balestra
_symmetry_space_group_name_H-M     'P 1             '
_symmetry_Int_Tables_number        1

loop_
_symmetry_equiv_pos_site_id
_symmetry_equiv_pos_as_xyz
_cell_length_a                       17.6492
_cell_length_b                        7.7883
_cell_length_c                       10.3553
_cell_angle_alpha                   88.9188
_cell_angle_beta                    90.5284
_cell_angle_gamma                   91.0793

loop_
_atom_site_label
_atom_site_type_symbol
_atom_site_fract_x
_atom_site_fract_y
_atom_site_fract_z
_atom_site_charge
  Ge     Ge        0.052090000000021    0.000000000000000    0.372269999999958  0.0000
  Ge     Ge        0.446491954439764    0.048962716137967    0.404675116157643  0.0000
  Ge     Ge        0.952614940590420    0.059252647432829    0.627852819041056  0.0000
  Ge     Ge        0.550299064974133    0.008485405873536    0.658582405594132  0.0000
  Ge     Ge        0.556929450640996    0.999441463631519    0.166017959505149  0.0000
  Ge     Ge        0.949336151836984    0.060020918328255    0.113735217420559  0.0000
  Ge     Ge        0.450380827549312    0.072043971283144    0.915813938449561  0.0000
  Ge     Ge        0.060810728047927    0.013884618052459    0.872702244067196  0.0000
  Ge     Ge        0.176794653177862    0.277470167889640    0.290972362000591  0.0000
  Ge     Ge        0.329314221828292    0.755058882039089    0.300570688519559  0.0000
  Ge     Ge        0.855520222738349    0.368182976816114    0.741161530984405  0.0000
  Ge     Ge        0.648639673350470    0.691121773131008    0.730865713467736  0.0000
  Ge     Ge        0.828169528448986    0.774354144900328    0.736206152745796  0.0000
  Ge     Ge        0.676680450110121    0.284809871018503    0.735095628936050  0.0000
  Ge     Ge        0.147786590546489    0.685108801159392    0.300991636290449  0.0000
  Ge     Ge        0.676399147868715    0.283737898002598    0.048621681605445  0.0000
  Ge     Ge        0.828070752835669    0.767814424688946    0.048864054164723  0.0000
  Ge     Ge        0.347562520605689    0.381907195677577    0.972632573364017  0.0000
  Ge     Ge        0.328391571284397    0.781293234504663    0.990935732927929  0.0000
  Ge     Ge        0.647632815637815    0.687611935003819    0.046474152997876  0.0000
  Si     Si        0.351766692378916    0.358492633768522    0.284232943830286  0.0000
  Si     Si        0.150738450523369    0.703357988687194    0.998699414278038  0.0000
  Si     Si        0.173309537000192    0.304226662716413    0.984149544519737  0.0000
  Si     Si        0.851824819925803    0.371652006809923    0.047908182893905  0.0000
  O1     O1        0.131729400507549    0.131256452979910    0.387258230654082  0.0000
  O1     O1        0.378021827659812    0.891454770636077    0.399978033423157  0.0000
  O1     O1        0.925891359195182    0.263429255409577    0.664743651230024  0.0000
  O1     O1        0.582852743167364    0.803619127316789    0.641913743733277  0.0000
  O1     O1        0.877108445260764    0.920229144903671    0.642767748446086  0.0000
  O1     O1        0.626058951529650    0.148430538946799    0.638952567454238  0.0000
  O1     O1        0.082632355779165    0.792471243995357    0.389330137390952  0.0000
  O3     O3        0.416963778367400    0.249554590896760    0.353135336341408  0.0000
  O1     O1        0.979186529574476    0.051472335990962    0.467895685677247  0.0000
  O1     O1        0.474652755181507    0.060014507029855    0.564340229480243  0.0000
  O1     O1        0.024408502473726    0.036262364309514    0.213736596426470  0.0000
  O1     O1        0.527101591763082    0.998308401745064    0.323273034033899  0.0000
  O1     O1        0.032569521827804    0.005392166539926    0.713955510552996  0.0000
  O1     O1        0.522670993945487    0.024970468038914    0.818395915128701  0.0000
  O1     O1        0.635983825695445    0.129451779798354    0.145575611836269  0.0000
  O1     O1        0.880410036276067    0.904073692743833    0.142567091675779  0.0000
  O1     O1        0.413894736141373    0.274185156301023    0.890407186222939  0.0000
  O3     O3        0.096411307437148    0.811423145476962    0.905807520844694  0.0000
  O1     O1        0.373473833733792    0.933518507707980    0.899592097781177  0.0000
  O3     O3        0.125175702197811    0.182955409934075    0.890548663291876  0.0000
  O1     O1        0.579863929823764    0.792877296787363    0.128589477566103  0.0000
  O3     O3        0.911087627924241    0.262672891567383    0.131243156739866  0.0000
  O1     O1        0.482584178141162    0.069209612241834    0.073232652313171  0.0000
  O1     O1        0.980082354447419    0.046895639615015    0.956812528904668  0.0000
  O1     O1        0.155329243947727    0.476664015546468    0.348929619661398  0.0000
  O3     O3        0.342460595437716    0.542201641183144    0.349706636711876  0.0000
  O1     O1        0.843022862927441    0.570814615839379    0.679143022533399  0.0000
  O1     O1        0.662923851520318    0.490718602154666    0.674612814688737  0.0000
  O3     O3        0.273609804846781    0.248182166461213    0.295879273674380  0.0000
  O1     O1        0.234165699940715    0.790370151841667    0.309420600648065  0.0000
  O1     O1        0.772385569070793    0.249267013692512    0.730925685589309  0.0000
  O1     O1        0.732553880055028    0.809053699585857    0.731439431428185  0.0000
  O3     O3        0.147958442749901    0.264533547630330    0.130278142696791  0.0000
  O1     O1        0.362646886431806    0.793586014723352    0.147153788773008  0.0000
  O3     O3        0.880272306061688    0.398025539119899    0.901427024264416  0.0000
  O1     O1        0.619460213337386    0.669805019148531    0.888355351204788  0.0000
  O1     O1        0.859281178706721    0.793552166114144    0.893025306943729  0.0000
  O1     O1        0.644369532310610    0.266115070265439    0.891803210975877  0.0000
  O3     O3        0.116328064954401    0.694751584129461    0.140915016846121  0.0000
  O3     O3        0.370502010996223    0.397525608156572    0.135526692398394  0.0000
  O1     O1        0.656900455128931    0.482841714510253    0.107413292976550  0.0000
  O3     O3        0.839290309034755    0.557243782569852    0.106319151955858  0.0000
  O1     O1        0.345062382440833    0.588524585834789    0.918412205826477  0.0000
  O2     O2        0.162191796836103    0.508104678961073    0.950879334996105  0.0000
  O3     O3        0.773563633710871    0.260904662410481    0.042658894718040  0.0000
  O1     O1        0.732516005589578    0.801497586389675    0.053766044028075  0.0000
  O3     O3        0.261616324428258    0.270021863166626    0.964535382250190  0.0000
  O3     O3        0.231491099639850    0.802484321077245    0.002833470980845  0.0000
