data_c00061.vasp
_audit_creation_method             Generated by GULP
_audit_author_name                 Salvador R. G. Balestra
_symmetry_space_group_name_H-M     'P 1             '
_symmetry_Int_Tables_number        1

loop_
_symmetry_equiv_pos_site_id
_symmetry_equiv_pos_as_xyz
_cell_length_a                       17.6975
_cell_length_b                        7.7934
_cell_length_c                       10.2266
_cell_angle_alpha                   88.6137
_cell_angle_beta                    90.0748
_cell_angle_gamma                   91.0572

loop_
_atom_site_label
_atom_site_type_symbol
_atom_site_fract_x
_atom_site_fract_y
_atom_site_fract_z
_atom_site_charge
  Ge     Ge        0.052090000000021    0.000000000000000    0.372269999999958  0.0000
  Ge     Ge        0.446392168487426    0.062522638773623    0.351446236009422  0.0000
  Ge     Ge        0.945587199194089    0.082001678891691    0.615238844063847  0.0000
  Ge     Ge        0.543625599057028    0.042827763912065    0.613358863222383  0.0000
  Ge     Ge        0.563033690946074    0.017528266043853    0.123763518248642  0.0000
  Ge     Ge        0.941924036599354    0.069971601904316    0.126675495178870  0.0000
  Ge     Ge        0.447617267037979    0.085006493683434    0.882689697379247  0.0000
  Ge     Ge        0.046025409440783    0.018612360785784    0.872536136276247  0.0000
  Ge     Ge        0.176531300621589    0.285695470033276    0.256634099903705  0.0000
  Ge     Ge        0.329566930476207    0.763472014373797    0.255556352124435  0.0000
  Ge     Ge        0.848306686787420    0.395002928081429    0.686267749529858  0.0000
  Ge     Ge        0.640899457004711    0.725203532648221    0.693233947321416  0.0000
  Ge     Ge        0.820635002629506    0.800272172698585    0.686441056192830  0.0000
  Ge     Ge        0.669725101838638    0.312782089259269    0.694036310496778  0.0000
  Ge     Ge        0.146522585842504    0.690469085645969    0.259227535685547  0.0000
  Ge     Ge        0.824401755121162    0.788907122791895    0.002497573382793  0.0000
  Ge     Ge        0.147309484984983    0.706845084468984    0.940084061908578  0.0000
  Ge     Ge        0.327421354451534    0.786767820679821    0.941508846605584  0.0000
  Ge     Ge        0.173645081037030    0.301617555491574    0.931855031586941  0.0000
  Ge     Ge        0.849843383053055    0.388309662713812    0.006368596768371  0.0000
  Si     Si        0.347538803819409    0.371484451423697    0.245336004439440  0.0000
  Si     Si        0.672978040188899    0.312792952161412    0.003204534229328  0.0000
  Si     Si        0.343021411110116    0.393200386563552    0.933664845492693  0.0000
  Si     Si        0.647201045443451    0.710344231787248    0.998932821952804  0.0000
  O1     O1        0.130617675251926    0.125382497241686    0.340872779914882  0.0000
  O1     O1        0.378659919662366    0.904655923426711    0.351364747443393  0.0000
  O1     O1        0.912918939666094    0.287005954196512    0.595252097261616  0.0000
  O1     O1        0.574885805236115    0.835327996635143    0.604041592901231  0.0000
  O1     O1        0.871696131134323    0.940653635603441    0.589055313108068  0.0000
  O1     O1        0.620402012354195    0.181083416507615    0.593919552848251  0.0000
  O1     O1        0.079597410476121    0.793512544145934    0.348507175216873  0.0000
  O3     O3        0.418552937931800    0.258010039708028    0.281972576170985  0.0000
  O1     O1        0.024970518951528    0.032440462182551    0.531557278412276  0.0000
  O1     O1        0.469628431745751    0.088542844772154    0.514121596283040  0.0000
  O1     O1        0.972213333971113    0.054759380276438    0.286058754984507  0.0000
  O1     O1        0.531747313168645    0.013884938028110    0.282617347210401  0.0000
  O1     O1        0.969711090437510    0.062926247463726    0.779733785335562  0.0000
  O1     O1        0.518368575169625    0.077899719410073    0.773430183542501  0.0000
  O3     O3        0.630272099321346    0.179576753165782    0.100258247061613  0.0000
  O1     O1        0.864193091922537    0.940452368294311    0.099310380487291  0.0000
  O3     O3        0.413937807804535    0.294603220075699    0.882700430780675  0.0000
  O1     O1        0.083025798290041    0.819355666783441    0.849401131740088  0.0000
  O1     O1        0.377733226551411    0.935561405212548    0.849916554477888  0.0000
  O1     O1        0.118937830711428    0.165367500155151    0.844680715490663  0.0000
  O3     O3        0.595659745328453    0.812349989640367    0.097216192263123  0.0000
  O1     O1        0.915209213052055    0.277730912426864    0.094891393273496  0.0000
  O1     O1        0.481988235750582    0.051058760795609    0.037600808641485  0.0000
  O1     O1        0.018319645239806    0.018958619304003    0.034620448001520  0.0000
  O1     O1        0.153388025719088    0.482236224031466    0.315420373722233  0.0000
  O3     O3        0.349166694827843    0.555174824456074    0.312315713573157  0.0000
  O1     O1        0.834055029809099    0.597243286590902    0.626669022035894  0.0000
  O1     O1        0.653219072001364    0.521943023238860    0.642683591518389  0.0000
  O3     O3        0.272900875739027    0.259493855271841    0.281401069497441  0.0000
  O1     O1        0.233993391606032    0.791296978660309    0.266625930792020  0.0000
  O1     O1        0.764591088569699    0.277471705212134    0.685613196511307  0.0000
  O1     O1        0.725770127752398    0.838272588002152    0.684238531052106  0.0000
  O1     O1        0.152095900723980    0.271833033852761    0.094856236661316  0.0000
  O1     O1        0.359987360018299    0.806994524317472    0.099180648246165  0.0000
  O1     O1        0.877930574818502    0.406852117037689    0.846285773042362  0.0000
  O3     O3        0.610521587584500    0.718307169852721    0.855601127388811  0.0000
  O1     O1        0.855724918430732    0.809527103597881    0.844073194345118  0.0000
  O3     O3        0.642557131357773    0.286123438612661    0.857486099398507  0.0000
  O1     O1        0.117331253251253    0.686069027601103    0.099707036826196  0.0000
  O2     O2        0.339947114024139    0.425338017770306    0.091012176305823  0.0000
  O2     O2        0.658772314431831    0.511249570547314    0.043585724706608  0.0000
  O1     O1        0.845682643774854    0.590274670706848    0.067148082986800  0.0000
  O3     O3        0.340360317555287    0.584794225237864    0.874625599237608  0.0000
  O1     O1        0.156074545636097    0.508055141930979    0.878387410991553  0.0000
  O3     O3        0.762202660313529    0.283242331459672    0.011097725476443  0.0000
  O3     O3        0.727661791651263    0.808410544065479    0.992947862388893  0.0000
  O3     O3        0.269396148255437    0.275503839532105    0.904088274595324  0.0000
  O1     O1        0.232174102620286    0.820716862619987    0.940683966414327  0.0000
