data_c00089.vasp
_audit_creation_method             Generated by GULP
_audit_author_name                 Salvador R. G. Balestra
_symmetry_space_group_name_H-M     'P 1             '
_symmetry_Int_Tables_number        1

loop_
_symmetry_equiv_pos_site_id
_symmetry_equiv_pos_as_xyz
_cell_length_a                       17.5966
_cell_length_b                        7.8387
_cell_length_c                       10.2704
_cell_angle_alpha                   90.7446
_cell_angle_beta                    90.4670
_cell_angle_gamma                   88.4434

loop_
_atom_site_label
_atom_site_type_symbol
_atom_site_fract_x
_atom_site_fract_y
_atom_site_fract_z
_atom_site_charge
  Ge     Ge        0.052090000000021    0.000000000000000    0.372269999999958  0.0000
  Ge     Ge        0.447830378981975    0.951911266154530    0.401181093086076  0.0000
  Ge     Ge        0.944876314848303    0.949107622982424    0.621450123249338  0.0000
  Ge     Ge        0.550054147419634    0.004295700692110    0.659457922869614  0.0000
  Ge     Ge        0.553656487191441    0.998669415148680    0.155398780655270  0.0000
  Ge     Ge        0.946393455736527    0.943131572111116    0.118423670411614  0.0000
  Ge     Ge        0.445426454296129    0.930325754247914    0.909557664467300  0.0000
  Ge     Ge        0.052510037824016    0.992365829611473    0.870707438194018  0.0000
  Ge     Ge        0.151868842965006    0.311219038363802    0.303688885872953  0.0000
  Ge     Ge        0.355909111401502    0.631727555884245    0.285384149062144  0.0000
  Ge     Ge        0.824300108537022    0.236744686938897    0.733470101604693  0.0000
  Ge     Ge        0.670345154146509    0.709750496364405    0.731137951053155  0.0000
  Ge     Ge        0.851953054931861    0.636004131122145    0.735001450673136  0.0000
  Ge     Ge        0.173701662907016    0.712176294992799    0.295701327728940  0.0000
  Ge     Ge        0.642475655936571    0.314666859904159    0.036726055504850  0.0000
  Ge     Ge        0.846246145715862    0.631647389318922    0.052633686871926  0.0000
  Ge     Ge        0.320689722890269    0.218795534192566    0.980229265047683  0.0000
  Ge     Ge        0.168720686386607    0.695848360121494    0.982058525867370  0.0000
  Ge     Ge        0.350756925084416    0.616061461310789    0.971257791393647  0.0000
  Ge     Ge        0.823113996092070    0.232461952214313    0.048710742014455  0.0000
  Si     Si        0.646035867267257    0.314106906970364    0.730328605570678  0.0000
  Si     Si        0.328325159981839    0.236793622060853    0.290524888026708  0.0000
  Si     Si        0.144604243808401    0.299654142649757    0.992524693845706  0.0000
  Si     Si        0.668991448831405    0.712422193161201    0.038846233063467  0.0000
  O1     O1        0.088602093717155    0.200155461203844    0.392016155886976  0.0000
  O1     O1        0.419350013060589    0.746353081071205    0.375892412528224  0.0000
  O1     O1        0.866213052207121    0.080472003214431    0.639990531258575  0.0000
  O1     O1        0.618757163783377    0.846164601994787    0.635360966309545  0.0000
  O1     O1        0.920101020937203    0.744152430857051    0.654519977666900  0.0000
  O3     O3        0.589587914993530    0.203228410701087    0.641901273818791  0.0000
  O1     O1        0.125943628405934    0.855173323208401    0.394146648640105  0.0000
  O3     O3        0.374269838558728    0.096486107458401    0.372215086491436  0.0000
  O1     O1        0.973925443515592    0.962150709184520    0.462003254967847  0.0000
  O1     O1        0.472621183533434    0.976686041804618    0.562831822647770  0.0000
  O1     O1        0.023883197402712    0.982408745540380    0.210917557642864  0.0000
  O1     O1        0.528678397422682    0.993103188632420    0.316485895739394  0.0000
  O1     O1        0.022349116974086    0.009678394939900    0.711726812166648  0.0000
  O1     O1        0.519961414329967    0.986275598641744    0.818145810022303  0.0000
  O1     O1        0.577211796428267    0.205475694403237    0.121438291367171  0.0000
  O1     O1        0.907288023145144    0.747309239706992    0.145379717188573  0.0000
  O1     O1        0.366772404781252    0.066220080449196    0.891771649953191  0.0000
  O1     O1        0.122337935592375    0.836021373980571    0.880974402047435  0.0000
  O1     O1        0.412755359505375    0.728856385784427    0.879641872137581  0.0000
  O3     O3        0.080720215121162    0.194039618781403    0.918957693151047  0.0000
  O3     O3        0.628396021248683    0.854877894105752    0.128320026685458  0.0000
  O1     O1        0.873707177816354    0.091567525860270    0.141749625402020  0.0000
  O1     O1        0.474191894641256    0.943239795730349    0.070294610109426  0.0000
  O1     O1        0.974356163229927    0.939780792589102    0.957716497251035  0.0000
  O1     O1        0.158641005627376    0.513733070354733    0.360888194781885  0.0000
  O3     O3        0.344136437047735    0.427229964259953    0.344389451817233  0.0000
  O1     O1        0.843671827138472    0.433221221263255    0.671814995232236  0.0000
  O3     O3        0.656567219308904    0.501450037651519    0.675218796842332  0.0000
  O3     O3        0.239035655493346    0.202389740974974    0.302593290825617  0.0000
  O1     O1        0.269491295741501    0.740399280442805    0.290724277801137  0.0000
  O3     O3        0.726891629561347    0.212734724403746    0.738311398652086  0.0000
  O1     O1        0.765445072253725    0.745161094950792    0.723084764791598  0.0000
  O3     O3        0.122159522237507    0.326240586393969    0.142591228198231  0.0000
  O1     O1        0.386093225179409    0.613640145655242    0.128478750567355  0.0000
  O1     O1        0.856314518870683    0.218639259023747    0.891244389161482  0.0000
  O3     O3        0.638609693164977    0.729455688616189    0.890730872208438  0.0000
  O1     O1        0.877742518293054    0.612931241700633    0.894851983159955  0.0000
  O3     O3        0.613042927324514    0.327379702619297    0.876068614295869  0.0000
  O1     O1        0.137836468451347    0.726861735053608    0.138888196488049  0.0000
  O3     O3        0.353243183262139    0.223766279617649    0.140196099000950  0.0000
  O3     O3        0.652505771443035    0.523165445818315    0.091302432579196  0.0000
  O1     O1        0.837140236072807    0.433606865406472    0.113788085526270  0.0000
  O1     O1        0.340020589221147    0.413870075913256    0.913701867322275  0.0000
  O3     O3        0.153678993843008    0.485571307720426    0.931690299189877  0.0000
  O1     O1        0.727133737748741    0.202508059858944    0.049991276524768  0.0000
  O3     O3        0.758827697226863    0.740046506603967    0.040497245723621  0.0000
  O3     O3        0.223725818197907    0.190709197373106    0.980744691648353  0.0000
  O1     O1        0.264433294293055    0.725305150332815    0.976974538667642  0.0000
