data_c00083.vasp
_audit_creation_method             Generated by GULP
_audit_author_name                 Salvador R. G. Balestra
_symmetry_space_group_name_H-M     'P 1             '
_symmetry_Int_Tables_number        1

loop_
_symmetry_equiv_pos_site_id
_symmetry_equiv_pos_as_xyz
_cell_length_a                       17.6459
_cell_length_b                        7.8460
_cell_length_c                       10.2396
_cell_angle_alpha                   90.1619
_cell_angle_beta                    90.0838
_cell_angle_gamma                   91.4775

loop_
_atom_site_label
_atom_site_type_symbol
_atom_site_fract_x
_atom_site_fract_y
_atom_site_fract_z
_atom_site_charge
  Ge     Ge        0.052090000000021    0.000000000000000    0.372269999999958  0.0000
  Ge     Ge        0.441018329880556    0.058391266242639    0.336818270079844  0.0000
  Ge     Ge        0.946471025289770    0.050495240930316    0.622840989594879  0.0000
  Ge     Ge        0.546611565197109    0.002213280182102    0.590919506626554  0.0000
  Ge     Ge        0.550177357820683    0.998313944679338    0.089669510668147  0.0000
  Ge     Ge        0.942007791691297    0.049875208131346    0.128546834428688  0.0000
  Ge     Ge        0.443250815512827    0.048943239666690    0.842872382424157  0.0000
  Ge     Ge        0.048910817391302    0.994299972432578    0.879722970366066  0.0000
  Ge     Ge        0.167874842213978    0.299601569338067    0.262619858813580  0.0000
  Ge     Ge        0.322401082355416    0.761907568652452    0.265848304254611  0.0000
  Ge     Ge        0.851074854480330    0.365858459028542    0.696026105307505  0.0000
  Ge     Ge        0.641793131635000    0.691326196985803    0.705504569642244  0.0000
  Ge     Ge        0.821934534271872    0.768543287905021    0.699562119826516  0.0000
  Ge     Ge        0.669707805969459    0.289084422619409    0.704394345736101  0.0000
  Ge     Ge        0.671983084755698    0.288753559790005    0.020368457136394  0.0000
  Ge     Ge        0.351757866259037    0.364906656583000    0.962067002720830  0.0000
  Ge     Ge        0.150896572999169    0.685193765517849    0.944841781612824  0.0000
  Ge     Ge        0.171614978704067    0.283882814781946    0.947474443450146  0.0000
  Ge     Ge        0.649162094048684    0.687322595116016    0.023786402756648  0.0000
  Ge     Ge        0.853287608972309    0.368000729233987    0.010458641639850  0.0000
  Si     Si        0.145609972443482    0.692362071550095    0.257540037459075  0.0000
  Si     Si        0.346178977420439    0.369315560797330    0.270697745323829  0.0000
  Si     Si        0.825977905412813    0.764473988417548    0.009778725683735  0.0000
  Si     Si        0.326776810682895    0.762800095606073    0.956077284191327  0.0000
  O1     O1        0.122020661978811    0.154460932581438    0.359325701771890  0.0000
  O1     O1        0.370559821452487    0.904903268208605    0.361105849364332  0.0000
  O1     O1        0.913071008722388    0.252277854821549    0.602229914441000  0.0000
  O1     O1        0.573897615499404    0.797595171287250    0.620865477325028  0.0000
  O1     O1        0.871378126423857    0.908181012250724    0.603368195997234  0.0000
  O1     O1        0.622586322950465    0.138886842041081    0.612594907743264  0.0000
  O3     O3        0.083401626834493    0.799610261350448    0.332671939736537  0.0000
  O3     O3        0.402349923141546    0.258050840042639    0.357445995610862  0.0000
  O1     O1        0.024086467099699    0.002248134193282    0.533525848117579  0.0000
  O1     O1        0.518363237760358    0.024469022915881    0.430493009692559  0.0000
  O1     O1        0.970255721689570    0.041406380817661    0.289048627056183  0.0000
  O1     O1        0.471226970121754    0.038394626317322    0.177406598542247  0.0000
  O1     O1        0.972697762970288    0.030739006914377    0.785400606419787  0.0000
  O1     O1        0.467843487217805    0.049704480820973    0.680982494746908  0.0000
  O1     O1        0.622282285872279    0.146862495604730    0.114482333116767  0.0000
  O3     O3        0.868144462591055    0.906144336776993    0.097818932176355  0.0000
  O1     O1        0.418213121050980    0.254749940718761    0.879856763554153  0.0000
  O1     O1        0.087118217216704    0.796071269596295    0.857283721559754  0.0000
  O3     O3        0.370293011945686    0.901272505514092    0.868469794939942  0.0000
  O1     O1        0.121803780228234    0.141223751804324    0.854040358650844  0.0000
  O1     O1        0.589087271553043    0.802835975792064    0.117471371739581  0.0000
  O1     O1        0.915580728415969    0.256687349796508    0.102503237717549  0.0000
  O1     O1        0.522872094590883    0.998310948047696    0.927382468557164  0.0000
  O1     O1        0.020859048049409    0.002838621050365    0.040666332803540  0.0000
  O3     O3        0.151591185085210    0.504817638826007    0.318686850874276  0.0000
  O3     O3        0.338610630281222    0.558771733782284    0.326004918147847  0.0000
  O1     O1        0.837861392362895    0.566381154520799    0.639389281921108  0.0000
  O1     O1        0.653753135363078    0.490245578926366    0.644207429672365  0.0000
  O3     O3        0.264739894924171    0.271479211349423    0.265001369361419  0.0000
  O3     O3        0.226145959930538    0.794405384779059    0.269333808865595  0.0000
  O1     O1        0.765295339450297    0.255542606066810    0.702142764982608  0.0000
  O1     O1        0.727005695662024    0.804560317166653    0.695570325118039  0.0000
  O1     O1        0.137674062141255    0.270021841458721    0.105449284618908  0.0000
  O3     O3        0.354032608596614    0.779991937956272    0.106124858837182  0.0000
  O1     O1        0.885842724437842    0.375303623286134    0.853347643558964  0.0000
  O1     O1        0.615936483789246    0.671171389011322    0.866091499079886  0.0000
  O3     O3        0.854446366747583    0.775919640819865    0.860531121073562  0.0000
  O1     O1        0.637873065468850    0.277243430900050    0.862761844290391  0.0000
  O3     O3        0.123019405821107    0.667490325016852    0.106954955941211  0.0000
  O3     O3        0.378615657426321    0.380442706009604    0.124004913207753  0.0000
  O1     O1        0.658078091778901    0.488743799717060    0.085744329806466  0.0000
  O3     O3        0.842133409821129    0.575685567154575    0.064736284825786  0.0000
  O3     O3        0.342480538315221    0.571379100192533    0.905520150814006  0.0000
  O1     O1        0.157689565319248    0.484850307439475    0.884826575538037  0.0000
  O1     O1        0.767539438670110    0.258955538426106    0.016698373899206  0.0000
  O3     O3        0.736489559903819    0.794832900700913    0.012933072288904  0.0000
  O1     O1        0.267276801354332    0.253543832540931    0.947115918815687  0.0000
  O3     O3        0.237546140153699    0.794873109985311    0.946895291224199  0.0000
