data_c00065.vasp
_audit_creation_method             Generated by GULP
_audit_author_name                 Salvador R. G. Balestra
_symmetry_space_group_name_H-M     'P 1             '
_symmetry_Int_Tables_number        1

loop_
_symmetry_equiv_pos_site_id
_symmetry_equiv_pos_as_xyz
_cell_length_a                       17.5615
_cell_length_b                        7.8268
_cell_length_c                       10.3529
_cell_angle_alpha                   88.6216
_cell_angle_beta                    90.0672
_cell_angle_gamma                   91.5949

loop_
_atom_site_label
_atom_site_type_symbol
_atom_site_fract_x
_atom_site_fract_y
_atom_site_fract_z
_atom_site_charge
  Ge     Ge        0.052090000000021    0.000000000000000    0.372269999999958  0.0000
  Ge     Ge        0.448798083111696    0.061059747614360    0.370646849117834  0.0000
  Ge     Ge        0.950149562944069    0.069840429273843    0.623106083845654  0.0000
  Ge     Ge        0.551801157206055    0.020382423289071    0.624159798562068  0.0000
  Ge     Ge        0.564236002776036    0.010387628991356    0.136414676011620  0.0000
  Ge     Ge        0.939704219247219    0.052971334638697    0.130544877235484  0.0000
  Ge     Ge        0.456877250405613    0.080404151302164    0.886525603562117  0.0000
  Ge     Ge        0.048897984274103    0.014338425825250    0.882684031273770  0.0000
  Ge     Ge        0.175846848143302    0.289934227479056    0.259232196003619  0.0000
  Ge     Ge        0.330265659051424    0.764061035225934    0.265548326539613  0.0000
  Ge     Ge        0.854563632505923    0.375353169665452    0.706346513968702  0.0000
  Ge     Ge        0.647346876380419    0.707162510208891    0.707725483138200  0.0000
  Ge     Ge        0.828084574543836    0.785988089819595    0.710491047004082  0.0000
  Ge     Ge        0.674638546510117    0.299129717837604    0.707435183415315  0.0000
  Ge     Ge        0.147419560195492    0.689567614805950    0.266080419790125  0.0000
  Ge     Ge        0.354194124605916    0.388669368922032    0.944652746303789  0.0000
  Ge     Ge        0.150354915747830    0.702837917727919    0.950633032226002  0.0000
  Ge     Ge        0.330478726105489    0.791900536830312    0.953624397893333  0.0000
  Ge     Ge        0.175758914716851    0.300426524560718    0.943780102320669  0.0000
  Ge     Ge        0.650066674508530    0.690744668663447    0.019143044712623  0.0000
  Si     Si        0.352997098956674    0.369719855065584    0.254726158707790  0.0000
  Si     Si        0.673739609636879    0.299459253028479    0.011406420755783  0.0000
  Si     Si        0.832022351650576    0.759487727565366    0.014103862435158  0.0000
  Si     Si        0.852548229459696    0.369003014138702    0.007869442129073  0.0000
  O1     O1        0.131250540491432    0.128005125104334    0.344173526943593  0.0000
  O1     O1        0.381097009965458    0.901159880379269    0.361207563429821  0.0000
  O1     O1        0.917187645438902    0.273964596591514    0.608900876022695  0.0000
  O1     O1        0.585110544682661    0.817335338306239    0.610900581479508  0.0000
  O1     O1        0.876453588633241    0.921923459438234    0.607070920414222  0.0000
  O1     O1        0.625756059304974    0.168233547230860    0.606003824988833  0.0000
  O1     O1        0.078836927970492    0.794203231265240    0.348933026427048  0.0000
  O3     O3        0.416463036119619    0.260613947252071    0.327475241256359  0.0000
  O1     O1        0.026808672437612    0.028448555388786    0.531337388848184  0.0000
  O1     O1        0.475048659593381    0.064388036147883    0.531607379267486  0.0000
  O1     O1        0.971254589247686    0.051898538486398    0.287666428342149  0.0000
  O1     O1        0.533047804918182    0.023225893990857    0.292683564071812  0.0000
  O1     O1        0.974251625569550    0.047009110228491    0.784650148733538  0.0000
  O1     O1        0.528723657647578    0.039881992646103    0.785879011553008  0.0000
  O3     O3        0.642113464988617    0.145977482468976    0.101692783136209  0.0000
  O3     O3        0.872608739208465    0.889626366907805    0.110376403773555  0.0000
  O1     O1        0.423961967226490    0.285161574375476    0.866672561871443  0.0000
  O1     O1        0.085552721177380    0.815114925734665    0.862991123918661  0.0000
  O1     O1        0.380768027599920    0.939573171692673    0.863520510189618  0.0000
  O1     O1        0.121896726496892    0.163445351478257    0.854768084335199  0.0000
  O1     O1        0.593415481412011    0.804524489431122    0.116501840869689  0.0000
  O3     O3        0.900039756447744    0.251786392968806    0.103899675350621  0.0000
  O1     O1        0.486892385680284    0.059243350952436    0.044667933292748  0.0000
  O1     O1        0.019713040518779    0.027472237721159    0.041611994614474  0.0000
  O1     O1        0.155903563121806    0.483599044266906    0.324459450256577  0.0000
  O3     O3        0.343076964620523    0.553181246456881    0.318162840206643  0.0000
  O1     O1        0.842899330199992    0.581219896309267    0.658307535896407  0.0000
  O1     O1        0.660888536494826    0.507089763025240    0.654249615264948  0.0000
  O3     O3        0.273513997975902    0.261465331279139    0.260903218934542  0.0000
  O1     O1        0.234350001530127    0.797023678802006    0.274555905422731  0.0000
  O1     O1        0.769633434166999    0.260297528891388    0.700646699009097  0.0000
  O1     O1        0.732939451937301    0.822191909743677    0.708062299790257  0.0000
  O1     O1        0.145761771868680    0.284851617393064    0.102029404938380  0.0000
  O1     O1        0.362678698499681    0.799329839785656    0.111177807091400  0.0000
  O3     O3        0.887900164103685    0.366509275620197    0.865551588977137  0.0000
  O1     O1        0.614974672757542    0.700083682978899    0.865054842317099  0.0000
  O3     O3        0.861318347664035    0.799255355754444    0.869217864170941  0.0000
  O3     O3        0.641356111918327    0.282013178013537    0.866714530287626  0.0000
  O1     O1        0.119836875205308    0.677119096417047    0.107780869972216  0.0000
  O3     O3        0.376722509505625    0.406838194422300    0.107290074593835  0.0000
  O3     O3        0.649539589244161    0.478174274735005    0.070458405041228  0.0000
  O2     O2        0.853063043312664    0.564438327220052    0.056171512936457  0.0000
  O1     O1        0.343939522298038    0.592613597713770    0.888767515372133  0.0000
  O1     O1        0.164399793117082    0.507941877357516    0.886958446238041  0.0000
  O2     O2        0.765425367824927    0.298194519457921    0.998101277776468  0.0000
  O3     O3        0.741709854641190    0.777500709827404    0.019103366687468  0.0000
  O1     O1        0.271483523480426    0.265808442435998    0.934409054006183  0.0000
  O1     O1        0.234481064981388    0.823133817091906    0.955210992639334  0.0000
