data_c00034.vasp
_audit_creation_method             Generated by GULP
_audit_author_name                 Salvador R. G. Balestra
_symmetry_space_group_name_H-M     'P 1             '
_symmetry_Int_Tables_number        1

loop_
_symmetry_equiv_pos_site_id
_symmetry_equiv_pos_as_xyz
_cell_length_a                       17.5911
_cell_length_b                        7.8535
_cell_length_c                       10.3290
_cell_angle_alpha                   89.0281
_cell_angle_beta                    90.9092
_cell_angle_gamma                   87.9202

loop_
_atom_site_label
_atom_site_type_symbol
_atom_site_fract_x
_atom_site_fract_y
_atom_site_fract_z
_atom_site_charge
  Ge     Ge        0.052090000000021    0.000000000000000    0.372269999999958  0.0000
  Ge     Ge        0.447132935490319    0.948664802163971    0.403886320036296  0.0000
  Ge     Ge        0.947059747674077    0.947257724290579    0.621065703667158  0.0000
  Ge     Ge        0.541989402465135    0.008657011761380    0.664513686265211  0.0000
  Ge     Ge        0.556641090883401    0.003151390882950    0.167964609023708  0.0000
  Ge     Ge        0.952938068247729    0.935309290640847    0.113398403902375  0.0000
  Ge     Ge        0.440987633238779    0.960656008076380    0.925469328459169  0.0000
  Ge     Ge        0.057883891311969    0.004366195849004    0.865430868150539  0.0000
  Ge     Ge        0.150771283001970    0.308623888641258    0.295379232714918  0.0000
  Ge     Ge        0.354632578095818    0.639298833670292    0.289563526849324  0.0000
  Ge     Ge        0.823892624642785    0.235807469903251    0.732777994462489  0.0000
  Ge     Ge        0.669507709041429    0.721040700706988    0.731922070325427  0.0000
  Ge     Ge        0.850996430498214    0.636754585751042    0.732456373741633  0.0000
  Ge     Ge        0.642603109182279    0.319104354857898    0.732104409039832  0.0000
  Ge     Ge        0.172783114917066    0.712808679067732    0.297174281981441  0.0000
  Ge     Ge        0.645699145057606    0.315942434890677    0.047477329866807  0.0000
  Ge     Ge        0.855499185895559    0.623770150430809    0.047997893585939  0.0000
  Ge     Ge        0.147109601368821    0.322542607942056    0.977498982445363  0.0000
  Ge     Ge        0.675216317847890    0.717284572966973    0.046674745246140  0.0000
  Ge     Ge        0.826532146952201    0.225085687213123    0.047458274691164  0.0000
  Si     Si        0.328368884456727    0.242094502010281    0.283112623060142  0.0000
  Si     Si        0.327236390566232    0.265630317366016    0.977426389367434  0.0000
  Si     Si        0.167279988271850    0.713648320164153    0.992163390578624  0.0000
  Si     Si        0.346691223867966    0.648663139086661    0.988177421352826  0.0000
  O1     O1        0.089643601755226    0.197172137209727    0.388768639166024  0.0000
  O1     O1        0.419717493280970    0.743584582150872    0.380358663392233  0.0000
  O1     O1        0.872496191976117    0.088949176948324    0.642786953925553  0.0000
  O1     O1        0.616559304436349    0.864649767999564    0.639716727386269  0.0000
  O1     O1        0.917731765609191    0.744483593828314    0.647912237225719  0.0000
  O1     O1        0.576165861795471    0.209737588015248    0.647252153596392  0.0000
  O1     O1        0.124750165213792    0.849223999575158    0.395482536127027  0.0000
  O3     O3        0.376064864971411    0.093954548430987    0.355899794349440  0.0000
  O1     O1        0.973973111733421    0.966363308471616    0.461436028285898  0.0000
  O1     O1        0.465715028337743    0.975532989796094    0.565850127837401  0.0000
  O1     O1        0.026782855127451    0.981614278421969    0.210615606774567  0.0000
  O1     O1        0.530453286890645    0.987461137327970    0.326997064786978  0.0000
  O1     O1        0.028804899618522    0.988971863044540    0.707081717956759  0.0000
  O1     O1        0.514400792127013    0.977974168632174    0.823078665583626  0.0000
  O1     O1        0.580435193676428    0.209227198628402    0.135173400460861  0.0000
  O1     O1        0.921515897132283    0.731819034379013    0.134538649917166  0.0000
  O3     O3        0.376827700455898    0.132106977121690    0.898443849503998  0.0000
  O3     O3        0.135956972572845    0.869293225676837    0.903784556342311  0.0000
  O3     O3        0.391050639479896    0.775412162589078    0.897456704593832  0.0000
  O1     O1        0.085392853955715    0.210288683078963    0.886803358455967  0.0000
  O1     O1        0.632839165075554    0.867035167704747    0.141887246990524  0.0000
  O1     O1        0.876712776180084    0.075693861460294    0.137293889391738  0.0000
  O1     O1        0.477440626805874    0.950818661403947    0.079565652067290  0.0000
  O1     O1        0.980610902221142    0.954349318783140    0.953905783510257  0.0000
  O1     O1        0.155363447140626    0.509431692944923    0.350878823968474  0.0000
  O3     O3        0.347889236567517    0.427522646157762    0.336773924265019  0.0000
  O1     O1        0.837605830430697    0.438063762851096    0.671526942043700  0.0000
  O1     O1        0.654662971985600    0.519892324787006    0.672723455608560  0.0000
  O3     O3        0.240303917105223    0.207613179168597    0.300935858159254  0.0000
  O1     O1        0.268141988730999    0.742927196071684    0.307444404546135  0.0000
  O1     O1        0.727991100289709    0.203098625502908    0.730891388589008  0.0000
  O1     O1        0.765551539858524    0.752616060755053    0.727678001152871  0.0000
  O1     O1        0.121421887059549    0.305390212819742    0.135755499715329  0.0000
  O3     O3        0.384315928664437    0.649565864444379    0.130712750464781  0.0000
  O1     O1        0.857109600855397    0.219562213582596    0.889738193236618  0.0000
  O1     O1        0.640573554244480    0.733231462982239    0.890453361090091  0.0000
  O1     O1        0.882691940544756    0.608630068103478    0.889228479079500  0.0000
  O1     O1        0.614031604646896    0.335208218006914    0.890062021095017  0.0000
  O3     O3        0.137808989186812    0.731805511771023    0.137989854030653  0.0000
  O2     O2        0.347526451913337    0.240900945792744    0.130168282888034  0.0000
  O1     O1        0.659283543788870    0.514861635397643    0.106550765798429  0.0000
  O1     O1        0.843396305782928    0.424395670829899    0.109381854313067  0.0000
  O2     O2        0.349004348125229    0.457227868164119    0.932375444427560  0.0000
  O3     O3        0.140998743624105    0.536844895005469    0.932798721462384  0.0000
  O1     O1        0.730557842850434    0.197925035471471    0.049900597872362  0.0000
  O1     O1        0.771276692451785    0.743589457784336    0.045752264914569  0.0000
  O3     O3        0.238593276364289    0.241488641841866    0.953238606956201  0.0000
  O2     O2        0.258930975752327    0.710391823112920    0.005532898267607  0.0000
