data_c00015.vasp
_audit_creation_method             Generated by GULP
_audit_author_name                 Salvador R. G. Balestra
_symmetry_space_group_name_H-M     'P 1             '
_symmetry_Int_Tables_number        1

loop_
_symmetry_equiv_pos_site_id
_symmetry_equiv_pos_as_xyz
_cell_length_a                       17.6449
_cell_length_b                        7.8079
_cell_length_c                       10.3209
_cell_angle_alpha                   89.6841
_cell_angle_beta                    90.2497
_cell_angle_gamma                   91.0721

loop_
_atom_site_label
_atom_site_type_symbol
_atom_site_fract_x
_atom_site_fract_y
_atom_site_fract_z
_atom_site_charge
  Ge     Ge        0.052090000000021    0.000000000000000    0.372269999999958  0.0000
  Ge     Ge        0.448069724777030    0.044934342650685    0.406429016078496  0.0000
  Ge     Ge        0.951738209965578    0.062173927655010    0.627372985965336  0.0000
  Ge     Ge        0.551933683992042    0.007339608282382    0.660666059633694  0.0000
  Ge     Ge        0.560616516695597    0.006739234407164    0.167697794209328  0.0000
  Ge     Ge        0.947832619409186    0.067134133838474    0.116505625499536  0.0000
  Ge     Ge        0.452071179562684    0.062064493149872    0.919393072708484  0.0000
  Ge     Ge        0.057533908679684    0.007388098137924    0.873593960411066  0.0000
  Ge     Ge        0.178295701433295    0.278697981484846    0.298114300625238  0.0000
  Ge     Ge        0.330346606530476    0.750530070470630    0.302181699741513  0.0000
  Ge     Ge        0.854918501857744    0.370464302970719    0.746194393738667  0.0000
  Ge     Ge        0.650088390344574    0.693853897621457    0.735490909275204  0.0000
  Ge     Ge        0.828700620720030    0.776413256266966    0.737565069713262  0.0000
  Ge     Ge        0.676164896341273    0.286070078203712    0.740702739733318  0.0000
  Ge     Ge        0.147853479190863    0.680502648210233    0.307529199590070  0.0000
  Ge     Ge        0.675107482998394    0.301826598634078    0.053606010457499  0.0000
  Ge     Ge        0.828178231067120    0.772829676605623    0.050701111033304  0.0000
  Ge     Ge        0.349034110797207    0.371565734595558    0.979273767029412  0.0000
  Ge     Ge        0.147953641448887    0.689924473066349    0.995336862752141  0.0000
  Ge     Ge        0.328483501153605    0.773597882933320    0.990631264253407  0.0000
  Si     Si        0.353864850973168    0.355073033122703    0.290010415054432  0.0000
  Si     Si        0.174925275063444    0.290737608955082    0.988720610638629  0.0000
  Si     Si        0.650773124486122    0.698805014148881    0.044576173087100  0.0000
  Si     Si        0.851834448613946    0.380159233132237    0.054869769858147  0.0000
  O1     O1        0.131938365769676    0.129932164955257    0.389052708784441  0.0000
  O1     O1        0.378729693633669    0.889876611105539    0.400871314303928  0.0000
  O1     O1        0.924599407002418    0.265283969769261    0.666898221077171  0.0000
  O1     O1        0.584034031187642    0.801522803876133    0.646348170264636  0.0000
  O1     O1        0.877614925166521    0.919640178496981    0.643115260944866  0.0000
  O1     O1        0.627083327979733    0.149034729612228    0.641932318819868  0.0000
  O1     O1        0.083276089077021    0.794981006773006    0.394646052157638  0.0000
  O3     O3        0.418391322180394    0.245931365173722    0.359306249379830  0.0000
  O1     O1        0.978325839090708    0.055551454821660    0.466698909772762  0.0000
  O1     O1        0.476203598281562    0.054795972976942    0.566802319760596  0.0000
  O1     O1        0.023518456031826    0.031684881869802    0.213287151036200  0.0000
  O1     O1        0.529099074214206    0.993469197427881    0.324663549715849  0.0000
  O1     O1        0.031571672234948    0.010508628856165    0.713178952529962  0.0000
  O1     O1        0.526039370725202    0.025520465436025    0.821687871758126  0.0000
  O1     O1        0.632127539814234    0.158700496309343    0.155883783050056  0.0000
  O1     O1        0.876685230881096    0.916088009953183    0.144405893225036  0.0000
  O1     O1        0.414345655337311    0.262401215516625    0.894744630456236  0.0000
  O1     O1        0.084911350339032    0.801002662445697    0.903601771936449  0.0000
  O1     O1        0.378300763614537    0.917124734817385    0.898643908662248  0.0000
  O3     O3        0.129914367435560    0.154857717681675    0.901492168238448  0.0000
  O3     O3        0.590452943124190    0.804989817794247    0.123949459159877  0.0000
  O3     O3        0.910779554460406    0.270213493581130    0.137241550757680  0.0000
  O1     O1        0.483098755571401    0.060167334960704    0.077799306628242  0.0000
  O1     O1        0.977796249126367    0.055950348008789    0.958318038135751  0.0000
  O1     O1        0.157646571392072    0.476013927294977    0.362029278203354  0.0000
  O3     O3        0.344277276555146    0.540448585885816    0.354399568268791  0.0000
  O1     O1        0.842719374028912    0.570842194429550    0.682864781141286  0.0000
  O1     O1        0.662459529318904    0.491310191495664    0.681932736900137  0.0000
  O3     O3        0.274998600327434    0.247197643867525    0.301303805676008  0.0000
  O1     O1        0.234899596001546    0.784842942254919    0.307690472722015  0.0000
  O1     O1        0.771918691529579    0.251189194222225    0.737713899154522  0.0000
  O1     O1        0.733302435242449    0.812456376575158    0.730379842407687  0.0000
  O3     O3        0.148244967765218    0.275373018050081    0.137453276043275  0.0000
  O1     O1        0.362534691032854    0.785115702318848    0.147482755107594  0.0000
  O3     O3        0.879519137820276    0.401793148848623    0.906972114265282  0.0000
  O3     O3        0.623183890162879    0.677594709459884    0.897076089396199  0.0000
  O1     O1        0.860116989402465    0.797045125353695    0.894777667784339  0.0000
  O1     O1        0.643624888453095    0.268882130238548    0.898213073367035  0.0000
  O1     O1        0.114855908709191    0.678142102834958    0.150283620201519  0.0000
  O3     O3        0.374527969849186    0.390715765039436    0.141400053295337  0.0000
  O3     O3        0.658633319604375    0.509641594162811    0.104424319033380  0.0000
  O3     O3        0.843501669113809    0.568285730078667    0.112733947128185  0.0000
  O1     O1        0.341599675993341    0.574377971289885    0.922619402310962  0.0000
  O3     O3        0.160836517070571    0.484178842966807    0.938393687113516  0.0000
  O3     O3        0.772098491287162    0.275393918124912    0.053022008830349  0.0000
  O3     O3        0.731211169513529    0.801571273007265    0.048847964570676  0.0000
  O3     O3        0.263933391759335    0.255866809040892    0.977931897569520  0.0000
  O1     O1        0.232719788445083    0.802730324565012    0.994269411196977  0.0000
