data_c00028.vasp
_audit_creation_method             Generated by GULP
_audit_author_name                 Salvador R. G. Balestra
_symmetry_space_group_name_H-M     'P 1             '
_symmetry_Int_Tables_number        1

loop_
_symmetry_equiv_pos_site_id
_symmetry_equiv_pos_as_xyz
_cell_length_a                       17.0909
_cell_length_b                        7.7560
_cell_length_c                       10.6617
_cell_angle_alpha                   85.6902
_cell_angle_beta                    90.6096
_cell_angle_gamma                   89.1675

loop_
_atom_site_label
_atom_site_type_symbol
_atom_site_fract_x
_atom_site_fract_y
_atom_site_fract_z
_atom_site_charge
  Ge     Ge        0.052090000000021    0.000000000000000    0.372269999999958  0.0000
  Ge     Ge        0.457606043687254    0.979384934504468    0.385240551262288  0.0000
  Ge     Ge        0.953960971876953    0.049125693941291    0.621962899544502  0.0000
  Ge     Ge        0.535274697986828    0.044365871767141    0.654711135066613  0.0000
  Ge     Ge        0.579697447973814    0.956728193336747    0.160834823550421  0.0000
  Ge     Ge        0.949988726853934    0.963978018462192    0.106715384045698  0.0000
  Ge     Ge        0.455013094570033    0.034961460953614    0.927268032652473  0.0000
  Ge     Ge        0.065604677287764    0.049287277408537    0.869102292150851  0.0000
  Ge     Ge        0.155076920944190    0.316547843454027    0.288675816945424  0.0000
  Ge     Ge        0.368195182383285    0.651342346482166    0.303569829149116  0.0000
  Ge     Ge        0.856381825419160    0.355768459553947    0.706453979380773  0.0000
  Ge     Ge        0.642974818809063    0.713357397450692    0.757434083428067  0.0000
  Ge     Ge        0.827465938153845    0.763092913017153    0.746894782366545  0.0000
  Ge     Ge        0.665355477015424    0.299764556499303    0.719135617836078  0.0000
  Ge     Ge        0.180222114726513    0.729839008739162    0.296539246994549  0.0000
  Ge     Ge        0.671986182461105    0.232871224048690    0.010659701817743  0.0000
  Ge     Ge        0.835947790892957    0.665488693619796    0.052393505962122  0.0000
  Ge     Ge        0.186201969073648    0.769022773756284    0.995082755484867  0.0000
  Ge     Ge        0.151064831715643    0.361083078773764    0.988224577724783  0.0000
  Ge     Ge        0.651952946475097    0.623963953748510    0.059788594896077  0.0000
  Si     Si        0.332211641471728    0.270682048681661    0.291261416392827  0.0000
  Si     Si        0.329027270225485    0.320818387653068    0.996828553612016  0.0000
  Si     Si        0.371282019248596    0.690716080983301    0.000719541277586  0.0000
  Si     Si        0.858154361548673    0.293301360342895    0.994606977760802  0.0000
  O1     O1        0.089348989016840    0.202623293319944    0.381025162916254  0.0000
  O1     O1        0.432880484522923    0.765517367268055    0.386829262410485  0.0000
  O1     O1        0.917994887510590    0.259534777054177    0.607194496389540  0.0000
  O1     O1        0.570642353072091    0.836926016369243    0.681989236041404  0.0000
  O1     O1        0.874469775452844    0.936641549483789    0.679422391519954  0.0000
  O1     O1        0.609566082172142    0.186321238915464    0.619658447130352  0.0000
  O1     O1        0.128200154763389    0.852113418090562    0.393963836100244  0.0000
  O3     O3        0.380600166305667    0.093760802800766    0.306337041769020  0.0000
  O1     O1        0.979441559669000    0.974254974325837    0.480645853335221  0.0000
  O1     O1        0.470019266867330    0.049191410659631    0.530160704272765  0.0000
  O1     O1        0.016765258405142    0.974379966622444    0.223629935074361  0.0000
  O1     O1        0.543011207838728    0.005039821577946    0.301842565815494  0.0000
  O1     O1        0.035586659352694    0.032443517135601    0.716789278645610  0.0000
  O1     O1        0.483004044736000    0.107880642597996    0.781143088032575  0.0000
  O1     O1        0.665990348950817    0.067233295356774    0.123615904148609  0.0000
  O1     O1        0.893383083870440    0.787446182135169    0.141931549371997  0.0000
  O3     O3        0.371461263915479    0.146266230095672    0.967792675216791  0.0000
  O1     O1        0.151632533215018    0.932133249690779    0.893575938021349  0.0000
  O3     O3        0.431815971713418    0.815710144242486    0.927527880487056  0.0000
  O1     O1        0.084098343397378    0.260271827830278    0.897865992646639  0.0000
  O1     O1        0.592878352681237    0.739980540476871    0.156193641797612  0.0000
  O3     O3        0.886098287263766    0.142617839893624    0.094548611787781  0.0000
  O1     O1        0.524917968647412    0.062670886168395    0.038431042595137  0.0000
  O1     O1        0.997774592072547    0.949918713010328    0.967536974624790  0.0000
  O1     O1        0.136805130518004    0.531865005484276    0.292654604647365  0.0000
  O3     O3        0.382780451609338    0.429131255865179    0.336302562233566  0.0000
  O1     O1        0.871389762525058    0.572725489417562    0.708333948864083  0.0000
  O1     O1        0.625946832054847    0.499333829969950    0.739465987794320  0.0000
  O3     O3        0.247545963327950    0.256667028527321    0.353115128846977  0.0000
  O1     O1        0.274956125471056    0.696158059900608    0.348425531403719  0.0000
  O1     O1        0.759796460839992    0.319862498252279    0.669704924183671  0.0000
  O1     O1        0.731966702092051    0.767379074372907    0.693636451417517  0.0000
  O1     O1        0.140564240947078    0.262237831456876    0.136631624011721  0.0000
  O3     O3        0.386224573560377    0.718091569727564    0.147638672536034  0.0000
  O3     O3        0.884703715361856    0.256090753661309    0.854363174802991  0.0000
  O1     O1        0.643682257473562    0.741056868134771    0.915859436727529  0.0000
  O1     O1        0.823855219241876    0.775043601794291    0.906584510289457  0.0000
  O1     O1        0.653550699878995    0.176550445755191    0.860657293215950  0.0000
  O1     O1        0.181759180899538    0.828397694593446    0.146776603254858  0.0000
  O2     O2        0.306762349123091    0.330517937137286    0.145258251553769  0.0000
  O1     O1        0.622236254449682    0.415846089370892    0.054681474237748  0.0000
  O3     O3        0.889130873877580    0.475553017213121    0.035250366205889  0.0000
  O2     O2        0.384667016182401    0.489020752310839    0.967448817319698  0.0000
  O1     O1        0.134930886002635    0.580041188341158    0.983918144610493  0.0000
  O3     O3        0.764257284650919    0.326042585033520    0.986255748114357  0.0000
  O1     O1        0.746180598052044    0.635175349705406    0.118774510644696  0.0000
  O3     O3        0.245450790335174    0.333293129677498    0.928709262677740  0.0000
  O3     O3        0.282895541627070    0.733373984033819    0.958689780166127  0.0000
