data_c00068.vasp
_audit_creation_method             Generated by GULP
_audit_author_name                 Salvador R. G. Balestra
_symmetry_space_group_name_H-M     'P 1             '
_symmetry_Int_Tables_number        1

loop_
_symmetry_equiv_pos_site_id
_symmetry_equiv_pos_as_xyz
_cell_length_a                       17.5979
_cell_length_b                        7.8044
_cell_length_c                       10.3250
_cell_angle_alpha                   89.3316
_cell_angle_beta                    90.6085
_cell_angle_gamma                   88.7770

loop_
_atom_site_label
_atom_site_type_symbol
_atom_site_fract_x
_atom_site_fract_y
_atom_site_fract_z
_atom_site_charge
  Ge     Ge        0.052090000000021    0.000000000000000    0.372269999999958  0.0000
  Ge     Ge        0.446383505788972    0.960141200978993    0.366296419540932  0.0000
  Ge     Ge        0.946319426580021    0.956657645694707    0.622933281028558  0.0000
  Ge     Ge        0.544957616561940    0.014283324648445    0.624402641410328  0.0000
  Ge     Ge        0.560054412868785    0.013594858874767    0.132188865508335  0.0000
  Ge     Ge        0.940567969238023    0.952873136265676    0.128842915955718  0.0000
  Ge     Ge        0.447892369275318    0.960668307205426    0.886260931183204  0.0000
  Ge     Ge        0.045857188240846    0.024869821158474    0.881175557770988  0.0000
  Ge     Ge        0.148554758427888    0.316472522932413    0.254584196443963  0.0000
  Ge     Ge        0.355245326222989    0.640185738620258    0.255248247452714  0.0000
  Ge     Ge        0.823117151177057    0.236789555100261    0.702072800766636  0.0000
  Ge     Ge        0.669953371872860    0.734034366175280    0.700625122991338  0.0000
  Ge     Ge        0.848189165896529    0.643980468424024    0.697794293499942  0.0000
  Ge     Ge        0.644215028693302    0.325119024707226    0.703269920716760  0.0000
  Ge     Ge        0.173996957179028    0.716918577804558    0.266763944824508  0.0000
  Ge     Ge        0.325934281900784    0.257611274675380    0.944037981180892  0.0000
  Ge     Ge        0.170712071773688    0.736257299057307    0.953398281879461  0.0000
  Ge     Ge        0.147121279901142    0.336442239700946    0.935035369816221  0.0000
  Ge     Ge        0.674501589447558    0.722168355862159    0.014110336599163  0.0000
  Ge     Ge        0.825250896517221    0.247889118053015    0.014235669819611  0.0000
  Si     Si        0.326449197787900    0.242820137154718    0.252494622147889  0.0000
  Si     Si        0.646952030023407    0.326146575356101    0.010126236602765  0.0000
  Si     Si        0.852134048898936    0.642679718669807    0.006868924197100  0.0000
  Si     Si        0.347549786488485    0.654861419586540    0.950326969841556  0.0000
  O1     O1        0.080518591875529    0.202059739304979    0.331313433125616  0.0000
  O1     O1        0.422828627871399    0.751130695150259    0.337519439155169  0.0000
  O1     O1        0.871988920308218    0.101955436957083    0.602395481017088  0.0000
  O1     O1        0.619056582703826    0.869920615891217    0.600782509732601  0.0000
  O1     O1        0.913670669743690    0.751744973364726    0.608439794609259  0.0000
  O1     O1        0.577637602856268    0.219931831896286    0.614394824876107  0.0000
  O1     O1        0.128054650326478    0.861876504242401    0.362653293653386  0.0000
  O3     O3        0.370089027543343    0.096482354245076    0.334723666447865  0.0000
  O1     O1        0.022846538466028    0.000562897461186    0.531529854042228  0.0000
  O1     O1        0.468148495265018    0.979910864976169    0.528603934878209  0.0000
  O1     O1        0.972902332329978    0.939984250717471    0.286276930837578  0.0000
  O1     O1        0.528699113019952    0.013786243604150    0.289198625999349  0.0000
  O1     O1        0.972327357669937    0.973838124677284    0.784601047007969  0.0000
  O1     O1        0.521600634655525    0.978868752779965    0.784648122211959  0.0000
  O3     O3        0.588475512452649    0.218996808595399    0.094214922941133  0.0000
  O3     O3        0.914399455986091    0.748883631121945    0.083623540607436  0.0000
  O1     O1        0.382636525139251    0.125372460465011    0.856567575197277  0.0000
  O1     O1        0.123639036819037    0.888552954241114    0.863988731440652  0.0000
  O3     O3        0.403471356486822    0.765608701165413    0.864170825741180  0.0000
  O1     O1        0.078830891559855    0.228133414563087    0.853000730682658  0.0000
  O1     O1        0.633183467011862    0.866133427705453    0.115830032186138  0.0000
  O1     O1        0.866438777899123    0.099826101431704    0.116818548777478  0.0000
  O1     O1        0.481552264817418    0.961905358136007    0.042869113587386  0.0000
  O1     O1        0.016204678117132    0.017854594058955    0.039908661781882  0.0000
  O1     O1        0.156556836696999    0.513538633542857    0.323460093422307  0.0000
  O3     O3        0.344909260027068    0.430238916281756    0.308542909990066  0.0000
  O1     O1        0.835041945863076    0.442920216465762    0.642585487634874  0.0000
  O1     O1        0.657183477307623    0.527168998455310    0.646700221495424  0.0000
  O3     O3        0.236692771693765    0.210508139063070    0.258829175299220  0.0000
  O1     O1        0.270060398381734    0.747091777056336    0.271826982746549  0.0000
  O1     O1        0.727191113511222    0.203148928544953    0.700715842751019  0.0000
  O1     O1        0.765831138258584    0.767585649949300    0.694494921316835  0.0000
  O1     O1        0.123773543961849    0.350288924138685    0.096222208717871  0.0000
  O3     O3        0.381687277859684    0.631026737542617    0.094996729117306  0.0000
  O1     O1        0.857168239047268    0.217260189594144    0.859609096684186  0.0000
  O1     O1        0.641046206528715    0.753382792906282    0.859456715110869  0.0000
  O3     O3        0.876870591028160    0.620588180047555    0.858774108727369  0.0000
  O3     O3        0.615851266026749    0.342549888393263    0.863553345344687  0.0000
  O1     O1        0.139561282009384    0.744330528404750    0.110905779765897  0.0000
  O3     O3        0.354003956619480    0.233223140009726    0.104681708175047  0.0000
  O3     O3        0.656258909147668    0.514837972799771    0.067247078548398  0.0000
  O3     O3        0.844721476992625    0.453167285044875    0.067511072454224  0.0000
  O3     O3        0.334978914949214    0.469287165190418    0.891237415088642  0.0000
  O1     O1        0.154122407656203    0.542131028096690    0.881062563897413  0.0000
  O3     O3        0.727836771997970    0.224905600084671    0.010187321309876  0.0000
  O3     O3        0.771980599044775    0.746462459545442    0.013245344104822  0.0000
  O1     O1        0.231479037911979    0.219352166196012    0.926080314279965  0.0000
  O3     O3        0.268084075287375    0.761268221286332    0.961534668768972  0.0000
