data_c00048.vasp
_audit_creation_method             Generated by GULP
_audit_author_name                 Salvador R. G. Balestra
_symmetry_space_group_name_H-M     'P 1             '
_symmetry_Int_Tables_number        1

loop_
_symmetry_equiv_pos_site_id
_symmetry_equiv_pos_as_xyz
_cell_length_a                       17.6090
_cell_length_b                        7.8166
_cell_length_c                       10.2835
_cell_angle_alpha                   89.5346
_cell_angle_beta                    90.5466
_cell_angle_gamma                   88.1172

loop_
_atom_site_label
_atom_site_type_symbol
_atom_site_fract_x
_atom_site_fract_y
_atom_site_fract_z
_atom_site_charge
  Ge     Ge        0.052090000000021    0.000000000000000    0.372269999999958  0.0000
  Ge     Ge        0.448588847127257    0.950323283487040    0.414894088447420  0.0000
  Ge     Ge        0.947107463218563    0.957005668107427    0.622526607946635  0.0000
  Ge     Ge        0.544706122838561    0.018812907546976    0.672220414199675  0.0000
  Ge     Ge        0.560710273763430    0.012997318032899    0.181146151200127  0.0000
  Ge     Ge        0.951798112596007    0.943307292916532    0.112023358013565  0.0000
  Ge     Ge        0.447910229770291    0.957666752653355    0.936201909383696  0.0000
  Ge     Ge        0.058580899539280    0.013464175457317    0.864483672896255  0.0000
  Ge     Ge        0.151833274518349    0.313896531035556    0.303029491439597  0.0000
  Ge     Ge        0.358395736558434    0.634943711686077    0.300826333073200  0.0000
  Ge     Ge        0.825035519027014    0.243601773545033    0.736930026495417  0.0000
  Ge     Ge        0.672170106563573    0.734679860092109    0.740510527904051  0.0000
  Ge     Ge        0.851798638791043    0.647439420369934    0.740316575473513  0.0000
  Ge     Ge        0.644430120894818    0.330240667017777    0.741893514617561  0.0000
  Ge     Ge        0.176340939739816    0.716171980228025    0.306039623982658  0.0000
  Ge     Ge        0.648711817640037    0.327121513254626    0.058744445037269  0.0000
  Ge     Ge        0.176252977718903    0.724448582175835    0.990441421800938  0.0000
  Ge     Ge        0.151230801943958    0.324431649718400    0.981488161112436  0.0000
  Ge     Ge        0.678097213513073    0.728238474314813    0.056814679648192  0.0000
  Ge     Ge        0.830026862753885    0.242167153471784    0.050846807356709  0.0000
  Si     Si        0.328699981986552    0.238568313243290    0.295440375789377  0.0000
  Si     Si        0.854004961098194    0.635849631948477    0.050087252822532  0.0000
  Si     Si        0.328770380162988    0.255527141114051    0.989080735512960  0.0000
  Si     Si        0.355190130127689    0.643690377924229    0.996613812170372  0.0000
  O1     O1        0.086814564784824    0.201626759873836    0.388079668172556  0.0000
  O1     O1        0.423349112543867    0.742441293093358    0.391163703342883  0.0000
  O1     O1        0.871837935962708    0.098013436680193    0.641015032795619  0.0000
  O1     O1        0.619554798213750    0.875258975006266    0.646499583025561  0.0000
  O1     O1        0.921119143480352    0.753053722964867    0.661094029641041  0.0000
  O1     O1        0.577934592681848    0.221740153695914    0.655248720906756  0.0000
  O1     O1        0.126981234165815    0.857351291217554    0.401483418508090  0.0000
  O3     O3        0.375014970624115    0.088857754298417    0.368544637887243  0.0000
  O1     O1        0.973480339601493    0.964488393235028    0.461476465257353  0.0000
  O1     O1        0.467508435410949    0.980516036231677    0.577435108620091  0.0000
  O1     O1        0.027449672685282    0.971111627405486    0.210634363574313  0.0000
  O1     O1        0.532225258956535    0.995943523889112    0.339772516565565  0.0000
  O1     O1        0.028332818643301    0.008391522688074    0.705595727324158  0.0000
  O1     O1        0.520268160750436    0.989707639826565    0.833358950968027  0.0000
  O1     O1        0.584210462132205    0.220099301639638    0.148937410329502  0.0000
  O3     O3        0.914923441290350    0.740306450886641    0.130618403282799  0.0000
  O3     O3        0.379665207581692    0.121794457303374    0.910505162692237  0.0000
  O1     O1        0.137650425395487    0.883843645755894    0.894826407824433  0.0000
  O3     O3        0.408571028178305    0.758265832553976    0.908925976590108  0.0000
  O1     O1        0.084315894947196    0.219228801942449    0.896132038154291  0.0000
  O1     O1        0.639156907129141    0.882402255099161    0.153718495663358  0.0000
  O1     O1        0.882763654858574    0.099119538896553    0.142457984007812  0.0000
  O1     O1        0.483034903761574    0.954644922451398    0.091810579419843  0.0000
  O1     O1        0.982166905939272    0.953177509129994    0.953523070055120  0.0000
  O1     O1        0.158459585681812    0.513610632750729    0.363709574066888  0.0000
  O3     O3        0.349378016141089    0.424098954315740    0.351076474059612  0.0000
  O1     O1        0.839183100970040    0.447597636926321    0.678406335338457  0.0000
  O1     O1        0.657529799803345    0.530905084042048    0.682830517555861  0.0000
  O3     O3        0.240140755092156    0.206775036682957    0.311127644071882  0.0000
  O1     O1        0.272398352217240    0.741691454370158    0.314443425649229  0.0000
  O1     O1        0.729217637998729    0.212249703192831    0.739270090249052  0.0000
  O1     O1        0.768080178824061    0.767447031320463    0.731618906268855  0.0000
  O1     O1        0.125777070175702    0.324361278766174    0.141781928782877  0.0000
  O3     O3        0.389566763047442    0.635249248984469    0.141954976281181  0.0000
  O1     O1        0.859947825800294    0.219514919195727    0.893017655723751  0.0000
  O1     O1        0.643839602790249    0.748313195679334    0.900502295458812  0.0000
  O3     O3        0.878897078324621    0.612345600141271    0.900833412977042  0.0000
  O1     O1        0.616554708670049    0.345700102595181    0.901314391564861  0.0000
  O1     O1        0.144416594087049    0.736118632518009    0.147212789460854  0.0000
  O2     O2        0.349750034778779    0.236432378406189    0.142300703801894  0.0000
  O1     O1        0.659141888382821    0.528966018008543    0.118368152938011  0.0000
  O3     O3        0.843422525236620    0.448581769189093    0.109366459977405  0.0000
  O2     O2        0.345881208949947    0.450794684152385    0.942891828461972  0.0000
  O1     O1        0.153681414859677    0.530604621269356    0.925695921236783  0.0000
  O1     O1        0.734426833714381    0.212829137188221    0.059046198427269  0.0000
  O3     O3        0.775454696078189    0.748360776494083    0.049403822495011  0.0000
  O3     O3        0.240621302200572    0.224294659863496    0.966343372639353  0.0000
  O3     O3        0.273543175951470    0.740041979863277    0.002313969201601  0.0000
