data_c00044.vasp
_audit_creation_method             Generated by GULP
_audit_author_name                 Salvador R. G. Balestra
_symmetry_space_group_name_H-M     'P 1             '
_symmetry_Int_Tables_number        1

loop_
_symmetry_equiv_pos_site_id
_symmetry_equiv_pos_as_xyz
_cell_length_a                       17.6496
_cell_length_b                        7.9222
_cell_length_c                       10.4357
_cell_angle_alpha                   88.3520
_cell_angle_beta                    90.4798
_cell_angle_gamma                   89.2968

loop_
_atom_site_label
_atom_site_type_symbol
_atom_site_fract_x
_atom_site_fract_y
_atom_site_fract_z
_atom_site_charge
  Ge     Ge        0.052090000000021    0.000000000000000    0.372269999999958  0.0000
  Ge     Ge        0.449732010714203    0.996619338560420    0.370460396214436  0.0000
  Ge     Ge        0.952482380940287    0.978732174876002    0.628590105345533  0.0000
  Ge     Ge        0.551042882372049    0.023015270983432    0.630233981960438  0.0000
  Ge     Ge        0.555463202703027    0.014804538476374    0.118073003352997  0.0000
  Ge     Ge        0.952358711032477    0.971259546352079    0.110153693333734  0.0000
  Ge     Ge        0.442311539705807    0.009335619680479    0.872759684532189  0.0000
  Ge     Ge        0.064735182476439    0.021696535712325    0.867667643283863  0.0000
  Ge     Ge        0.161762706283288    0.299949151855537    0.287683683327666  0.0000
  Ge     Ge        0.344197527226122    0.698693688719418    0.297940244849681  0.0000
  Ge     Ge        0.831805054210121    0.264949649968038    0.740939920675328  0.0000
  Ge     Ge        0.673407058007730    0.732347745251771    0.736769637626001  0.0000
  Ge     Ge        0.853797296598994    0.667400928180134    0.739613037831885  0.0000
  Ge     Ge        0.650599825278952    0.330651670530857    0.742249690520157  0.0000
  Ge     Ge        0.162528320983353    0.706633424104919    0.299163390279801  0.0000
  Ge     Ge        0.652922626873007    0.334123365658039    0.056065615602496  0.0000
  Ge     Ge        0.345377338715821    0.326279960527064    0.979440992050612  0.0000
  Ge     Ge        0.158053581714911    0.335134608446817    0.976452271894362  0.0000
  Ge     Ge        0.676237512261621    0.730647388749126    0.048436780202247  0.0000
  Ge     Ge        0.834496439368869    0.270039676183363    0.051569511200310  0.0000
  Si     Si        0.341208655401223    0.295892793560485    0.283651159779794  0.0000
  Si     Si        0.853890879089259    0.662717772698423    0.045320529737415  0.0000
  Si     Si        0.163113049061322    0.721770502450264    0.000202341009857  0.0000
  Si     Si        0.344645235190505    0.713342609279650    0.001587324772315  0.0000
  O1     O1        0.109014987405231    0.173609321201088    0.385618608197502  0.0000
  O1     O1        0.399680162265711    0.813749822200851    0.397477324534771  0.0000
  O1     O1        0.881697624875458    0.122975471448206    0.653975741857334  0.0000
  O1     O1        0.623081990101906    0.877514489642446    0.646120888038497  0.0000
  O1     O1        0.921141948073582    0.777300802845100    0.657631959125345  0.0000
  O1     O1        0.582598948169181    0.221070897064195    0.663413492373128  0.0000
  O1     O1        0.106974670465579    0.821450188092891    0.398032226379784  0.0000
  O3     O3        0.390978338821995    0.173543000889306    0.375722156023950  0.0000
  O1     O1        0.975420859922637    0.002629011725496    0.468598490132322  0.0000
  O1     O1        0.524035515463406    0.019604015545454    0.471460132833530  0.0000
  O1     O1        0.025153728373762    0.995479411329087    0.213115833876103  0.0000
  O1     O1        0.482959194290846    0.975055838267833    0.217446162870529  0.0000
  O1     O1        0.035799605233139    0.006996816880687    0.711305296232621  0.0000
  O1     O1        0.471570985792956    0.978112204389260    0.718858252179085  0.0000
  O1     O1        0.589351949418924    0.214631744086031    0.139839441424853  0.0000
  O3     O3        0.911426006764449    0.772843794510422    0.126310918360514  0.0000
  O1     O1        0.401289340433292    0.205652332910794    0.885742676604692  0.0000
  O3     O3        0.136732905176348    0.878141690091334    0.911057077118640  0.0000
  O3     O3        0.372074474336837    0.864707766525229    0.911174079917472  0.0000
  O1     O1        0.101799001848743    0.219227313967863    0.879962870179313  0.0000
  O1     O1        0.631509641658456    0.876481365147729    0.137715952932469  0.0000
  O1     O1        0.886384373317206    0.127455472808817    0.141060875606349  0.0000
  O1     O1        0.523018870347073    0.989928369323121    0.963166459978533  0.0000
  O1     O1        0.984575242606298    0.989776272295363    0.955153802929238  0.0000
  O1     O1        0.157387151992820    0.498967728430740    0.345532313029079  0.0000
  O3     O3        0.344595501326526    0.484853658225800    0.335800596257239  0.0000
  O1     O1        0.844740508464821    0.468333842145892    0.682236182252387  0.0000
  O1     O1        0.660186868103981    0.532109334641693    0.680424446519091  0.0000
  O3     O3        0.255338476870923    0.232288026870617    0.282062640198300  0.0000
  O1     O1        0.253792535720938    0.775174361581775    0.311292887423082  0.0000
  O1     O1        0.736395858250815    0.224533528176822    0.736070801150203  0.0000
  O1     O1        0.768616335034810    0.774097654795668    0.728589230947613  0.0000
  O1     O1        0.130181379654097    0.296853919481235    0.131520358616604  0.0000
  O3     O3        0.379459920597279    0.726955678201376    0.143176904237353  0.0000
  O1     O1        0.864176102462088    0.251505282904848    0.896167620380919  0.0000
  O1     O1        0.643721556134675    0.741219557341396    0.892672878832027  0.0000
  O3     O3        0.881253348323080    0.646981008786023    0.899384990447234  0.0000
  O1     O1        0.623516588811009    0.347096898516229    0.898646794057475  0.0000
  O3     O3        0.128502040963321    0.733582182343737    0.141406824640289  0.0000
  O3     O3        0.371851440071040    0.289186759243683    0.138467343542203  0.0000
  O1     O1        0.659208900540722    0.532421529721964    0.113970982100674  0.0000
  O3     O3        0.846667641508141    0.474973806326858    0.105136080291205  0.0000
  O3     O3        0.365859107507365    0.535580385682585    0.940723059153981  0.0000
  O3     O3        0.140662632526220    0.547108251217836    0.936969512118595  0.0000
  O1     O1        0.739691936238841    0.231533712279020    0.059316035114873  0.0000
  O3     O3        0.773031617812322    0.760348651309931    0.043188458567869  0.0000
  O1     O1        0.251787243969679    0.283662308761071    0.955306748108345  0.0000
  O2     O2        0.253884102427204    0.712077082543391    0.024959641955093  0.0000
