data_c00033.vasp
_audit_creation_method             Generated by GULP
_audit_author_name                 Salvador R. G. Balestra
_symmetry_space_group_name_H-M     'P 1             '
_symmetry_Int_Tables_number        1

loop_
_symmetry_equiv_pos_site_id
_symmetry_equiv_pos_as_xyz
_cell_length_a                       17.7717
_cell_length_b                        7.8123
_cell_length_c                       10.4602
_cell_angle_alpha                   88.1152
_cell_angle_beta                    91.0848
_cell_angle_gamma                   88.7762

loop_
_atom_site_label
_atom_site_type_symbol
_atom_site_fract_x
_atom_site_fract_y
_atom_site_fract_z
_atom_site_charge
  Ge     Ge        0.052090000000021    0.000000000000000    0.372269999999958  0.0000
  Ge     Ge        0.448387120657544    0.019674398116817    0.393377988708747  0.0000
  Ge     Ge        0.947188250958938    0.011297730737481    0.622962763389904  0.0000
  Ge     Ge        0.542088652530151    0.066682058631864    0.656565201525758  0.0000
  Ge     Ge        0.560139245021989    0.031451212646309    0.163991123590786  0.0000
  Ge     Ge        0.950532917024419    0.989633666361496    0.114039954205891  0.0000
  Ge     Ge        0.444349316200632    0.028496569240538    0.923643485624849  0.0000
  Ge     Ge        0.057654023983499    0.018472272177780    0.869783207556179  0.0000
  Ge     Ge        0.174606023394428    0.272036421705622    0.290560342665888  0.0000
  Ge     Ge        0.335409830039409    0.726436092029075    0.292816662748853  0.0000
  Ge     Ge        0.823832053433116    0.293776013478485    0.731361094660508  0.0000
  Ge     Ge        0.668284626098445    0.778846345697511    0.733009465276621  0.0000
  Ge     Ge        0.847474319446880    0.700313751318898    0.732042481578541  0.0000
  Ge     Ge        0.645193277707854    0.369965439651059    0.730538807477984  0.0000
  Ge     Ge        0.152173362889559    0.690548067784732    0.291363277477681  0.0000
  Ge     Ge        0.645383110528309    0.354204640019619    0.042648103461638  0.0000
  Ge     Ge        0.855794563692066    0.673837830720980    0.042220952791473  0.0000
  Ge     Ge        0.330152077620500    0.737360297918302    0.985820535626666  0.0000
  Ge     Ge        0.676197402741169    0.759871535652046    0.042755327819260  0.0000
  Ge     Ge        0.825011219546508    0.272421044355551    0.042955513766068  0.0000
  Si     Si        0.345178097091766    0.333044520212723    0.284225183633705  0.0000
  Si     Si        0.337129213765575    0.350736360625392    0.980204238005956  0.0000
  Si     Si        0.149956191673621    0.702564724698561    0.993055530242923  0.0000
  Si     Si        0.168462486746537    0.297451808876134    0.984415344552046  0.0000
  O1     O1        0.124963415877632    0.140387071769363    0.387686263849947  0.0000
  O1     O1        0.387492087762560    0.854913818171645    0.388951508210715  0.0000
  O1     O1        0.875880595436276    0.158682795032004    0.640737020535922  0.0000
  O1     O1        0.613643894472756    0.916864250009250    0.639080933147638  0.0000
  O1     O1        0.912966156895227    0.809981744312527    0.646284578259018  0.0000
  O1     O1        0.580090552090058    0.265983873050993    0.640533533238664  0.0000
  O1     O1        0.091591698065050    0.797151287182870    0.387365137188370  0.0000
  O3     O3        0.414661131489010    0.207094023184751    0.313543186207109  0.0000
  O1     O1        0.977546588531200    0.030163194271090    0.467539310897166  0.0000
  O1     O1        0.467951814470035    0.049938356638178    0.551940049163833  0.0000
  O1     O1        0.020584291818248    0.037422947353055    0.216681678505630  0.0000
  O1     O1        0.532300044591161    0.991166865249578    0.318343470659229  0.0000
  O1     O1        0.027227097511793    0.040571904251017    0.714105509618189  0.0000
  O1     O1        0.510624097371213    0.035859374609402    0.810055734712382  0.0000
  O1     O1        0.581592978344833    0.242032750593668    0.130986572811646  0.0000
  O1     O1        0.920841488626281    0.781938684656351    0.129787173638596  0.0000
  O3     O3        0.403274310479958    0.231771768160802    0.935637751962772  0.0000
  O3     O3        0.099540223551267    0.816085477095481    0.893903716058625  0.0000
  O1     O1        0.375375576735376    0.884285795432327    0.892210576386227  0.0000
  O3     O3        0.118981489106974    0.185149240204481    0.893251864618736  0.0000
  O1     O1        0.638684305359400    0.906015501856474    0.141744939780982  0.0000
  O1     O1        0.872385320728768    0.120536458584365    0.133621447307718  0.0000
  O1     O1        0.487293518764091    0.970489383891995    0.066484290813509  0.0000
  O1     O1        0.979566135586335    0.033615661323670    0.959973221816779  0.0000
  O1     O1        0.151916252021749    0.477874262182068    0.328729389128154  0.0000
  O3     O3        0.352412209055048    0.515199669298305    0.348457476036132  0.0000
  O1     O1        0.833432334813545    0.501408611564597    0.673364694476605  0.0000
  O1     O1        0.656717267924724    0.575261749722629    0.676579051839240  0.0000
  O3     O3        0.269828176416711    0.236684546396920    0.324696236268678  0.0000
  O1     O1        0.241120433106059    0.770899965765182    0.305369718625226  0.0000
  O1     O1        0.729089417214303    0.254111523968416    0.727306575985877  0.0000
  O1     O1        0.763364144707243    0.816120971138050    0.728844645821175  0.0000
  O3     O3        0.155749400332138    0.236642474802652    0.130251453846438  0.0000
  O1     O1        0.363514569290509    0.764811258957983    0.139119795171990  0.0000
  O1     O1        0.854935998760428    0.274103066974953    0.887118155781581  0.0000
  O1     O1        0.639866396397676    0.786801362971476    0.889322558487729  0.0000
  O1     O1        0.882976130663720    0.673234699564224    0.885303281666405  0.0000
  O1     O1        0.615034591114993    0.372334843683518    0.886130812527755  0.0000
  O3     O3        0.119199236749289    0.729357400570758    0.134385056690544  0.0000
  O2     O2        0.335357618637336    0.387219993195077    0.132768031500713  0.0000
  O1     O1        0.657631193286967    0.554815831572557    0.099189427310616  0.0000
  O1     O1        0.843926132894053    0.471928634733504    0.102628605175598  0.0000
  O3     O3        0.347302889026352    0.539304591231851    0.919860405392228  0.0000
  O2     O2        0.147322826349372    0.499807992175060    0.965486121809767  0.0000
  O1     O1        0.730134049302111    0.242274588379961    0.045817529928967  0.0000
  O1     O1        0.771175293576872    0.786144272461566    0.037666189781891  0.0000
  O2     O2        0.256081014611734    0.269836705710593    0.945963667327253  0.0000
  O3     O3        0.234257260983949    0.770389345213303    0.987687948871822  0.0000
