data_c00003.vasp
_audit_creation_method             Generated by GULP
_audit_author_name                 Salvador R. G. Balestra
_symmetry_space_group_name_H-M     'P 1             '
_symmetry_Int_Tables_number        1

loop_
_symmetry_equiv_pos_site_id
_symmetry_equiv_pos_as_xyz
_cell_length_a                       17.7167
_cell_length_b                        7.8629
_cell_length_c                       10.3735
_cell_angle_alpha                   88.7776
_cell_angle_beta                    89.5021
_cell_angle_gamma                   89.9073

loop_
_atom_site_label
_atom_site_type_symbol
_atom_site_fract_x
_atom_site_fract_y
_atom_site_fract_z
_atom_site_charge
  Ge     Ge        0.052090000000021    0.000000000000000    0.372269999999958  0.0000
  Ge     Ge        0.455639975636660    0.005452042207438    0.401503666638248  0.0000
  Ge     Ge        0.954168834936072    0.035616709653713    0.634699058493783  0.0000
  Ge     Ge        0.550328673480085    0.989310875870486    0.670745069190280  0.0000
  Ge     Ge        0.558448427031806    0.993149723547477    0.151772647176050  0.0000
  Ge     Ge        0.942847652919140    0.039095688412680    0.119794358701881  0.0000
  Ge     Ge        0.441880388449730    0.063699365897312    0.923297262346452  0.0000
  Ge     Ge        0.060587458733184    0.031818648161395    0.878822375268793  0.0000
  Ge     Ge        0.174409741368584    0.282410500244710    0.289576885333364  0.0000
  Ge     Ge        0.338750398364590    0.723640084153550    0.310307353052047  0.0000
  Ge     Ge        0.851278460497889    0.340459126963598    0.753525201045585  0.0000
  Ge     Ge        0.656393301740483    0.672053128292424    0.727293545285363  0.0000
  Ge     Ge        0.828106420417097    0.753093616174432    0.738065449457831  0.0000
  Ge     Ge        0.671958879026111    0.270592378476593    0.744327259399116  0.0000
  Ge     Ge        0.153396147225641    0.689570254040286    0.312781132608885  0.0000
  Ge     Ge        0.353547345617736    0.318611574381054    0.278129479957178  0.0000
  Ge     Ge        0.666378850510844    0.295620044312021    0.052100775031325  0.0000
  Ge     Ge        0.823439813563462    0.749935761507680    0.058011149986150  0.0000
  Ge     Ge        0.340701360958955    0.379339473994009    0.963502847571856  0.0000
  Ge     Ge        0.163180010709340    0.344275446983789    0.977190138924903  0.0000
  Si     Si        0.158884971529059    0.735879539953821    0.014471988313153  0.0000
  Si     Si        0.337988717006362    0.762831307699218    0.009149777751071  0.0000
  Si     Si        0.651771205988883    0.681642060422042    0.043541585193954  0.0000
  Si     Si        0.846498388156238    0.355072369648689    0.055103296272111  0.0000
  O1     O1        0.126961129162624    0.136916443797173    0.382704512187074  0.0000
  O1     O1        0.385091259330099    0.856747986772278    0.409820263072080  0.0000
  O1     O1        0.919664992301575    0.232641197384882    0.673060339174771  0.0000
  O1     O1        0.581406755296058    0.780731835780704    0.666695324839211  0.0000
  O1     O1        0.887008831332934    0.880266383367044    0.649328701388547  0.0000
  O1     O1        0.625772727162419    0.124673670957297    0.654006147548290  0.0000
  O1     O1        0.089509094106874    0.800066358818553    0.402221273438808  0.0000
  O1     O1        0.423536010272134    0.197914068562002    0.343647859783044  0.0000
  O1     O1        0.979478635180881    0.041621826462101    0.474390883159269  0.0000
  O1     O1        0.484009494433987    0.031256349323990    0.557704553028544  0.0000
  O1     O1        0.018205766967198    0.025086904175036    0.217726413247875  0.0000
  O1     O1        0.530893836558750    0.943281594905823    0.307284624883224  0.0000
  O1     O1        0.033818422222476    0.995282384656913    0.723161019099044  0.0000
  O1     O1        0.513072333290073    0.008950713572395    0.822695574265408  0.0000
  O1     O1        0.628328519630853    0.143156541948093    0.153382009226652  0.0000
  O1     O1        0.876139033892245    0.883173205712945    0.147810001205523  0.0000
  O1     O1        0.402790265384834    0.255488323269801    0.878401074986664  0.0000
  O3     O3        0.126553896759813    0.875534493064845    0.917410326204132  0.0000
  O3     O3        0.368606892725084    0.913291216029201    0.919378186831842  0.0000
  O1     O1        0.102546219477432    0.227567550992717    0.887470453931076  0.0000
  O3     O3        0.583058838481831    0.805084519934411    0.074712723231728  0.0000
  O3     O3        0.898942532834738    0.234330812359872    0.141766140243255  0.0000
  O1     O1        0.480713872515870    0.073386065888418    0.074079326944329  0.0000
  O1     O1        0.978325064947091    0.017085092391818    0.965844804739539  0.0000
  O1     O1        0.133292776272829    0.479407925578875    0.312536330866044  0.0000
  O1     O1        0.377473970331565    0.525659341244820    0.308876957500286  0.0000
  O1     O1        0.839797480711124    0.543280258353647    0.695931158193078  0.0000
  O1     O1        0.657340876335643    0.468702767731231    0.673270055196431  0.0000
  O1     O1        0.265491528825589    0.278641194446848    0.343955310818136  0.0000
  O1     O1        0.246048422044900    0.713367586180722    0.357025327416264  0.0000
  O1     O1        0.767396136527068    0.230624279252701    0.746175257888558  0.0000
  O1     O1        0.735722841115308    0.792586801142418    0.698337302153744  0.0000
  O1     O1        0.169546651454978    0.246815644032331    0.126604097413208  0.0000
  O3     O3        0.352479938020453    0.812827200171319    0.156196084376135  0.0000
  O3     O3        0.880971901173305    0.359299041787426    0.911170534025322  0.0000
  O3     O3        0.661708737461645    0.634607800056668    0.893946233687236  0.0000
  O1     O1        0.845170937726809    0.786672208140899    0.898660464388290  0.0000
  O1     O1        0.634899353054318    0.256130406606768    0.899425544235699  0.0000
  O3     O3        0.143048214849967    0.787188717251975    0.160458299864144  0.0000
  O1     O1        0.339849660751739    0.290723680514315    0.116910225674637  0.0000
  O3     O3        0.642638054682214    0.495473857037912    0.110291243654077  0.0000
  O3     O3        0.843523935002373    0.543170990698418    0.109319962298400  0.0000
  O3     O3        0.376387481261647    0.584371729140528    0.970146662571101  0.0000
  O3     O3        0.125885554550756    0.548712162372380    0.990980881139732  0.0000
  O3     O3        0.763154880538130    0.274660186437045    0.046333498386012  0.0000
  O3     O3        0.727682033419977    0.778070127186185    0.086990962698380  0.0000
  O1     O1        0.251005161543191    0.358453651177365    0.905364654876843  0.0000
  O2     O2        0.249545303655668    0.714584699712719    0.996477680427847  0.0000
