data_c00047.vasp
_audit_creation_method             Generated by GULP
_audit_author_name                 Salvador R. G. Balestra
_symmetry_space_group_name_H-M     'P 1             '
_symmetry_Int_Tables_number        1

loop_
_symmetry_equiv_pos_site_id
_symmetry_equiv_pos_as_xyz
_cell_length_a                       17.7137
_cell_length_b                        7.8090
_cell_length_c                       10.3865
_cell_angle_alpha                   88.2528
_cell_angle_beta                    90.2722
_cell_angle_gamma                   89.5565

loop_
_atom_site_label
_atom_site_type_symbol
_atom_site_fract_x
_atom_site_fract_y
_atom_site_fract_z
_atom_site_charge
  Ge     Ge        0.052090000000021    0.000000000000000    0.372269999999958  0.0000
  Ge     Ge        0.448433491677420    0.040411315686590    0.366227673775848  0.0000
  Ge     Ge        0.951727125595489    0.054620223461384    0.622753384393426  0.0000
  Ge     Ge        0.545109777187645    0.098636468195047    0.623354436936187  0.0000
  Ge     Ge        0.562585204216113    0.072319867132965    0.138045891092131  0.0000
  Ge     Ge        0.942774465496580    0.033925802501699    0.124375008288642  0.0000
  Ge     Ge        0.449081947585083    0.073760534744401    0.894747008042964  0.0000
  Ge     Ge        0.054270901355640    0.063239001602443    0.884228382215531  0.0000
  Ge     Ge        0.175090256879663    0.286404474352107    0.251287677623811  0.0000
  Ge     Ge        0.336465819498846    0.741265558608744    0.273659739401817  0.0000
  Ge     Ge        0.827976866557009    0.329812426089503    0.699407850868650  0.0000
  Ge     Ge        0.670275212979616    0.814327722853718    0.697072094907289  0.0000
  Ge     Ge        0.848259196842257    0.738937527863831    0.691477287989772  0.0000
  Ge     Ge        0.648320955085603    0.402344691781704    0.703535848213016  0.0000
  Ge     Ge        0.150500238128276    0.693189841544664    0.277834739792192  0.0000
  Ge     Ge        0.647156378460775    0.398585647555155    0.016573630907915  0.0000
  Ge     Ge        0.149184412118226    0.732743192933662    0.967485032249945  0.0000
  Ge     Ge        0.333050680936139    0.782313012372865    0.966005174216170  0.0000
  Ge     Ge        0.677847177044864    0.804266777264801    0.010147629689324  0.0000
  Ge     Ge        0.828878916107343    0.329260670720999    0.010492029491053  0.0000
  Si     Si        0.346847470815201    0.350764418370306    0.253178807452850  0.0000
  Si     Si        0.854153927816884    0.727467385259148    0.998194342419455  0.0000
  Si     Si        0.344081868801699    0.393748939851869    0.947154789899499  0.0000
  Si     Si        0.175126887238645    0.336866364219198    0.937084914530675  0.0000
  O1     O1        0.126446386244185    0.118011921271576    0.312219598151270  0.0000
  O1     O1        0.388094523445013    0.872352494860687    0.371307024374592  0.0000
  O1     O1        0.878845349281836    0.200157832248695    0.601432401865011  0.0000
  O1     O1        0.614514152505848    0.945535765495412    0.601965974828790  0.0000
  O1     O1        0.915487901640856    0.852053063924719    0.608733042691203  0.0000
  O1     O1        0.585476990993625    0.296948051683161    0.608901263026661  0.0000
  O1     O1        0.089098590936828    0.796027116909573    0.377282183096916  0.0000
  O3     O3        0.414916230440422    0.221905540795182    0.280258177269705  0.0000
  O1     O1        0.026610350287897    0.072231747265174    0.520336386607380  0.0000
  O1     O1        0.468913864055172    0.082939165442178    0.523826276052601  0.0000
  O1     O1        0.970755905708120    0.016855821842297    0.282230272319966  0.0000
  O1     O1        0.534056969290440    0.016996729444107    0.291438602992041  0.0000
  O1     O1        0.983103617792794    0.091580715337241    0.776175455928107  0.0000
  O1     O1        0.516152705669402    0.068199508168024    0.780348680574042  0.0000
  O1     O1        0.584978183876637    0.284576971432930    0.111013195777832  0.0000
  O3     O3        0.916087610689367    0.833729093296408    0.073439009485815  0.0000
  O3     O3        0.412390640626147    0.281676658241004    0.900213766412016  0.0000
  O1     O1        0.092177674503152    0.861264725251020    0.873029613359085  0.0000
  O1     O1        0.376963899198440    0.933289876592179    0.871185826364091  0.0000
  O3     O3        0.126323816688307    0.210439501526859    0.854483140564160  0.0000
  O1     O1        0.643095799258312    0.956042727510415    0.107266676970758  0.0000
  O1     O1        0.872728053054128    0.185845770557032    0.113820590373040  0.0000
  O1     O1        0.490086824489885    0.014657351167053    0.038819702446098  0.0000
  O1     O1        0.019126198295205    0.097656990334666    0.034950560486555  0.0000
  O1     O1        0.149149646061844    0.477680932146563    0.315112876296906  0.0000
  O3     O3        0.355575452508348    0.529225187848278    0.323714362458927  0.0000
  O1     O1        0.837576333385022    0.537098771492183    0.637994537640141  0.0000
  O1     O1        0.660737089960526    0.606815788199784    0.646955640588413  0.0000
  O3     O3        0.270059686922260    0.252933285790470    0.289378345565678  0.0000
  O1     O1        0.241163314324990    0.770417888094000    0.288616365467065  0.0000
  O1     O1        0.732815796586877    0.289702681817741    0.702737726427369  0.0000
  O1     O1        0.765370405480947    0.855848794619101    0.684953634662208  0.0000
  O3     O3        0.160438437087729    0.298428657823600    0.087567616188590  0.0000
  O1     O1        0.366592822492841    0.794672882534791    0.121518022697236  0.0000
  O1     O1        0.860238932566854    0.306076082226810    0.856140413806353  0.0000
  O1     O1        0.643425031795884    0.827603662273399    0.855635020442653  0.0000
  O3     O3        0.878619211009756    0.713976781181248    0.850465919101390  0.0000
  O1     O1        0.615766525052137    0.405580218712581    0.859503934169688  0.0000
  O1     O1        0.116802601860604    0.728417788445753    0.122940335859442  0.0000
  O2     O2        0.339747983358208    0.414149817879284    0.102637519121678  0.0000
  O1     O1        0.655304397950645    0.603045573481846    0.069779308582470  0.0000
  O3     O3        0.845759406176136    0.537600242810450    0.059332360062767  0.0000
  O3     O3        0.351552074470078    0.587002173448199    0.894878021285559  0.0000
  O3     O3        0.151957826287450    0.532138458303739    0.902773279302136  0.0000
  O1     O1        0.733766790598730    0.297598570044655    0.017014968439312  0.0000
  O3     O3        0.774701534550754    0.828410794770947    0.002632051114699  0.0000
  O2     O2        0.264239326224219    0.311156755883959    0.904407220855450  0.0000
  O1     O1        0.238149085728936    0.818126129704549    0.972442746747643  0.0000
