data_c00082.vasp
_audit_creation_method             Generated by GULP
_audit_author_name                 Salvador R. G. Balestra
_symmetry_space_group_name_H-M     'P 1             '
_symmetry_Int_Tables_number        1

loop_
_symmetry_equiv_pos_site_id
_symmetry_equiv_pos_as_xyz
_cell_length_a                       17.5902
_cell_length_b                        7.8170
_cell_length_c                       10.2642
_cell_angle_alpha                   90.5065
_cell_angle_beta                    89.9522
_cell_angle_gamma                   88.2192

loop_
_atom_site_label
_atom_site_type_symbol
_atom_site_fract_x
_atom_site_fract_y
_atom_site_fract_z
_atom_site_charge
  Ge     Ge        0.052090000000021    0.000000000000000    0.372269999999958  0.0000
  Ge     Ge        0.439104150487622    0.962145168031236    0.376973166045013  0.0000
  Ge     Ge        0.948700806098728    0.956254503369416    0.626021939711357  0.0000
  Ge     Ge        0.545964062525163    0.018896199995898    0.624396190641982  0.0000
  Ge     Ge        0.552028772501928    0.021772836894359    0.136815299740002  0.0000
  Ge     Ge        0.938322982615945    0.957007258970136    0.133878371529011  0.0000
  Ge     Ge        0.449092961424238    0.945335025168317    0.883538866284033  0.0000
  Ge     Ge        0.047917680975866    0.010320388006974    0.887195868167900  0.0000
  Ge     Ge        0.143668630019805    0.319228527109863    0.257348732318071  0.0000
  Ge     Ge        0.348666995217755    0.641118654403400    0.259661726212555  0.0000
  Ge     Ge        0.824444112331960    0.240218426072484    0.703063704293402  0.0000
  Ge     Ge        0.670025266872490    0.734816780702214    0.699936934565514  0.0000
  Ge     Ge        0.849313975463712    0.646960933048313    0.700491301079141  0.0000
  Ge     Ge        0.644354766351745    0.329798128918957    0.700128467753926  0.0000
  Ge     Ge        0.640503511193417    0.336419127331518    0.017102710156517  0.0000
  Ge     Ge        0.322954973953892    0.234545180119800    0.953777787093540  0.0000
  Ge     Ge        0.169274340105830    0.711651921046206    0.950608729032578  0.0000
  Ge     Ge        0.350208826121412    0.635419788262696    0.943466280693914  0.0000
  Ge     Ge        0.671497894998990    0.737043307365988    0.016166219477686  0.0000
  Ge     Ge        0.822511890568721    0.252546886933711    0.017896620362324  0.0000
  Si     Si        0.168461748859494    0.713037356305304    0.258718498522482  0.0000
  Si     Si        0.322897662895934    0.248218427727232    0.262943125925407  0.0000
  Si     Si        0.848982252107010    0.649527480207136    0.009375006610842  0.0000
  Si     Si        0.146575734764817    0.315028712617636    0.949345059310658  0.0000
  O1     O1        0.079640818166673    0.205388912853441    0.342023947497038  0.0000
  O1     O1        0.409620531869903    0.757408359873633    0.351938327103551  0.0000
  O1     O1        0.874453345606556    0.102269350941513    0.602833740070118  0.0000
  O1     O1        0.618784710539275    0.869287446052692    0.600649667267415  0.0000
  O1     O1        0.915466647366288    0.752451828356097    0.612206340431484  0.0000
  O1     O1        0.580698935816506    0.219745757400284    0.606955772573276  0.0000
  O3     O3        0.127840185998585    0.859368049952435    0.345719375896770  0.0000
  O3     O3        0.364120215624083    0.103188088898403    0.348105909667347  0.0000
  O1     O1        0.027114328170755    0.989270509577451    0.534324367199738  0.0000
  O1     O1        0.465858565412352    0.981025468338432    0.537882420534876  0.0000
  O1     O1        0.969982719433435    0.950698605632919    0.292427483165890  0.0000
  O1     O1        0.520954753614618    0.008693263645694    0.295186978817753  0.0000
  O1     O1        0.972703120992638    0.986787028342779    0.787916288478524  0.0000
  O1     O1        0.522170376027431    0.999678798447374    0.787902291050534  0.0000
  O1     O1        0.573900346591607    0.229664173468199    0.103559620921925  0.0000
  O3     O3        0.908756020557026    0.754269279087262    0.092790502803420  0.0000
  O1     O1        0.371058008155239    0.083672064246434    0.865965555494188  0.0000
  O1     O1        0.115354088682869    0.848592055639398    0.859745864683187  0.0000
  O1     O1        0.415639927453643    0.743748675315515    0.855306007669633  0.0000
  O3     O3        0.088815442686970    0.208196163564939    0.863542575100068  0.0000
  O1     O1        0.632618470643051    0.894578492717422    0.112873081170083  0.0000
  O1     O1        0.867428770445448    0.111472307423790    0.120465378250198  0.0000
  O1     O1        0.478440628442192    0.952826498012401    0.043595752854186  0.0000
  O1     O1        0.017014368274477    0.006398640917483    0.045772796504952  0.0000
  O3     O3        0.148716073321268    0.527402942333153    0.314822035975821  0.0000
  O3     O3        0.342100084391546    0.435177103354674    0.319117338902452  0.0000
  O1     O1        0.836878204489740    0.444753468750883    0.644675405400032  0.0000
  O1     O1        0.658489206307983    0.528873021372774    0.641389858867855  0.0000
  O3     O3        0.232984429287491    0.221585586865973    0.267042508190993  0.0000
  O3     O3        0.258567796706936    0.736759381055793    0.259922126143259  0.0000
  O1     O1        0.728331394157691    0.208779782352132    0.703178358910068  0.0000
  O1     O1        0.765841043949650    0.768840128856483    0.696189271584592  0.0000
  O3     O3        0.115497818224913    0.329793408862529    0.096954370068706  0.0000
  O1     O1        0.380702229859663    0.633074523223326    0.103311992736461  0.0000
  O1     O1        0.855602078316453    0.222461485722103    0.862124070319772  0.0000
  O1     O1        0.638175196995493    0.752950144401560    0.858926624810840  0.0000
  O3     O3        0.878494408325941    0.628792669272880    0.861852055245074  0.0000
  O1     O1        0.611899648376900    0.351794746534741    0.857678229926436  0.0000
  O3     O3        0.138567044489499    0.729658484942241    0.111020744772637  0.0000
  O3     O3        0.353384503961073    0.233266879212803    0.115002797385324  0.0000
  O1     O1        0.649548370580976    0.540241421882925    0.077165401927986  0.0000
  O3     O3        0.837373244948978    0.462842012236071    0.068345469006247  0.0000
  O1     O1        0.341852247913548    0.431314494319154    0.888502811648037  0.0000
  O3     O3        0.158453698324379    0.502393994233143    0.894173888269037  0.0000
  O1     O1        0.726432328224645    0.224976362746513    0.022248545906889  0.0000
  O3     O3        0.769051982336117    0.756557385774422    0.008946035433880  0.0000
  O3     O3        0.226354351697120    0.206348888590802    0.952756342855044  0.0000
  O1     O1        0.264049257721292    0.747795573885813    0.939653322336554  0.0000
