data_c00040.vasp
_audit_creation_method             Generated by GULP
_audit_author_name                 Salvador R. G. Balestra
_symmetry_space_group_name_H-M     'P 1             '
_symmetry_Int_Tables_number        1

loop_
_symmetry_equiv_pos_site_id
_symmetry_equiv_pos_as_xyz
_cell_length_a                       17.6016
_cell_length_b                        7.8115
_cell_length_c                       10.3184
_cell_angle_alpha                   89.8932
_cell_angle_beta                    90.5499
_cell_angle_gamma                   88.6925

loop_
_atom_site_label
_atom_site_type_symbol
_atom_site_fract_x
_atom_site_fract_y
_atom_site_fract_z
_atom_site_charge
  Ge     Ge        0.052090000000021    0.000000000000000    0.372269999999958  0.0000
  Ge     Ge        0.447052062623585    0.953774836706036    0.411309379659400  0.0000
  Ge     Ge        0.949237182935119    0.960771998590715    0.626647516886766  0.0000
  Ge     Ge        0.547233222024615    0.011183531327492    0.667260998099565  0.0000
  Ge     Ge        0.557421040471574    0.009762827818137    0.173195836557566  0.0000
  Ge     Ge        0.949989243394174    0.944328680706694    0.113118230055530  0.0000
  Ge     Ge        0.448156464538892    0.940639539472434    0.926003515928347  0.0000
  Ge     Ge        0.059485847248334    0.003219953098476    0.869664414659454  0.0000
  Ge     Ge        0.152339541891288    0.314440307180328    0.302255391009892  0.0000
  Ge     Ge        0.356116831930725    0.635842721793654    0.292224110507374  0.0000
  Ge     Ge        0.826508397563434    0.244431791897731    0.736402233037378  0.0000
  Ge     Ge        0.674261426388969    0.732010463341259    0.738451119474663  0.0000
  Ge     Ge        0.853923280489159    0.648465158317549    0.743548772056560  0.0000
  Ge     Ge        0.645855351917050    0.327617652834778    0.736688325511982  0.0000
  Ge     Ge        0.175537966895213    0.718292093593494    0.299428971165693  0.0000
  Ge     Ge        0.647606467021004    0.323774964228886    0.052596763725088  0.0000
  Ge     Ge        0.326873338421222    0.236986180651828    0.990962793101783  0.0000
  Ge     Ge        0.174349458407661    0.706644405059438    0.986128467054236  0.0000
  Ge     Ge        0.676408545865880    0.725792669137555    0.054009063505316  0.0000
  Ge     Ge        0.828670072143184    0.241125522454362    0.049572262218326  0.0000
  Si     Si        0.329040584711021    0.237845688865449    0.297884796404947  0.0000
  Si     Si        0.852020233428297    0.635390566732333    0.052271207899791  0.0000
  Si     Si        0.352230227586029    0.630207520230719    0.985590819280353  0.0000
  Si     Si        0.149943069707225    0.310756264231601    0.992490671655374  0.0000
  O1     O1        0.087406149271973    0.202843378966961    0.387401720604637  0.0000
  O1     O1        0.422369037295142    0.746844762183299    0.377484448019206  0.0000
  O1     O1        0.873411162001841    0.099484599048510    0.640496644955572  0.0000
  O1     O1        0.623210908603585    0.872145615118316    0.643246217654105  0.0000
  O1     O1        0.924275949803411    0.756582597089739    0.668562417724476  0.0000
  O1     O1        0.579158656464470    0.216067376180037    0.650967533435143  0.0000
  O1     O1        0.127157371666066    0.858181366748718    0.396544433802285  0.0000
  O3     O3        0.372834279716128    0.097602995081021    0.384455270335615  0.0000
  O1     O1        0.975666787322681    0.963325550726323    0.465917113849547  0.0000
  O1     O1        0.470190645435546    0.968398108192127    0.573314721089334  0.0000
  O1     O1        0.025590445066688    0.972383936912446    0.212139107520413  0.0000
  O1     O1        0.528552212158970    0.004293298167119    0.331650952138185  0.0000
  O1     O1        0.029106886189723    0.018782907580816    0.711433874450010  0.0000
  O1     O1        0.521723478654113    0.979081688019602    0.827260206979382  0.0000
  O1     O1        0.581032906308756    0.216224280118395    0.137677550188726  0.0000
  O3     O3        0.912267476022840    0.741599661773753    0.134065836796198  0.0000
  O1     O1        0.376506748983876    0.093063172490357    0.901515272067022  0.0000
  O1     O1        0.131153036385574    0.851105957027010    0.884025036606267  0.0000
  O3     O3        0.409744531967636    0.739432349395757    0.901343925765825  0.0000
  O3     O3        0.087846429376833    0.205365079744560    0.915207071179395  0.0000
  O1     O1        0.635799890236045    0.878318909603559    0.150293548321556  0.0000
  O1     O1        0.881215021859568    0.100065039818064    0.141541928862752  0.0000
  O1     O1        0.480897250855705    0.945292206920019    0.083280965107433  0.0000
  O1     O1        0.980896849946077    0.949054097605269    0.955470171573941  0.0000
  O1     O1        0.159628067519292    0.515921414044663    0.359993113277218  0.0000
  O3     O3        0.345080650348567    0.429068434505726    0.349415408590455  0.0000
  O1     O1        0.841836593357194    0.448537618584111    0.679642259670394  0.0000
  O1     O1        0.659281324825587    0.528490555127124    0.678569433207679  0.0000
  O3     O3        0.239485152512642    0.205369780695305    0.304186248569469  0.0000
  O1     O1        0.271584838798738    0.747913272798886    0.303388230587465  0.0000
  O1     O1        0.730551216886632    0.211561764631254    0.735302407980569  0.0000
  O1     O1        0.770244996548046    0.766620387412631    0.732519150069154  0.0000
  O3     O3        0.124841544579031    0.330609691545206    0.140769894595432  0.0000
  O3     O3        0.383531264858530    0.617518107895001    0.132855179634730  0.0000
  O1     O1        0.859532130388490    0.218677887504881    0.892870668858629  0.0000
  O1     O1        0.644095285521170    0.745433698459542    0.896976125457198  0.0000
  O3     O3        0.878067742174160    0.610608126428864    0.904075501580056  0.0000
  O1     O1        0.617246295510143    0.344475266628985    0.894967393435353  0.0000
  O1     O1        0.143165571322496    0.736772227896664    0.141086411897502  0.0000
  O3     O3        0.357719736548149    0.219531188820626    0.150551512924003  0.0000
  O1     O1        0.657395077089206    0.525742436244033    0.113874009722767  0.0000
  O3     O3        0.840482473533529    0.447953351700222    0.110077445643207  0.0000
  O3     O3        0.343605261975884    0.440681766721927    0.930489398019027  0.0000
  O3     O3        0.157438226713523    0.499547837537610    0.933198980150506  0.0000
  O1     O1        0.732843927292149    0.209409899986015    0.055491956259616  0.0000
  O3     O3        0.773870290127845    0.747863893517170    0.049726402349754  0.0000
  O3     O3        0.230253908681732    0.206270005426329    0.984586619091190  0.0000
  O3     O3        0.271557170713086    0.732213946990538    0.988508596602316  0.0000
