data_c00093.vasp
_audit_creation_method             Generated by GULP
_audit_author_name                 Salvador R. G. Balestra
_symmetry_space_group_name_H-M     'P 1             '
_symmetry_Int_Tables_number        1

loop_
_symmetry_equiv_pos_site_id
_symmetry_equiv_pos_as_xyz
_cell_length_a                       17.8164
_cell_length_b                        7.7917
_cell_length_c                       10.5196
_cell_angle_alpha                   89.6258
_cell_angle_beta                    90.6972
_cell_angle_gamma                   89.5860

loop_
_atom_site_label
_atom_site_type_symbol
_atom_site_fract_x
_atom_site_fract_y
_atom_site_fract_z
_atom_site_charge
  Ge     Ge        0.052090000000021    0.000000000000000    0.372269999999958  0.0000
  Ge     Ge        0.448483478603306    0.027398045211592    0.394977034359476  0.0000
  Ge     Ge        0.950221533392188    0.990884382493181    0.625565641405163  0.0000
  Ge     Ge        0.552088483066006    0.033074848265486    0.652978445505196  0.0000
  Ge     Ge        0.553398597906082    0.031905917847261    0.149419079308758  0.0000
  Ge     Ge        0.949362858544652    0.998710317396195    0.115418569173088  0.0000
  Ge     Ge        0.445414699406182    0.026536928270133    0.903371747463587  0.0000
  Ge     Ge        0.057877339494088    0.011094081548210    0.873574924308142  0.0000
  Ge     Ge        0.173120636641986    0.274747972697822    0.286492941537936  0.0000
  Ge     Ge        0.330993162520926    0.737516151605391    0.287760975168108  0.0000
  Ge     Ge        0.827146898005213    0.273518517749235    0.736491245765608  0.0000
  Ge     Ge        0.671786395613015    0.743737859576540    0.723462263584563  0.0000
  Ge     Ge        0.851760054450079    0.678670005844138    0.725976089114493  0.0000
  Ge     Ge        0.151698268372918    0.688426864201665    0.293537260349829  0.0000
  Ge     Ge        0.646732536251482    0.346197830597399    0.035563811632817  0.0000
  Ge     Ge        0.852146624036773    0.681799123713410    0.036774458891345  0.0000
  Ge     Ge        0.344319015709271    0.343960416498784    0.975053677638509  0.0000
  Ge     Ge        0.326050411172621    0.749428690140116    0.980500942708435  0.0000
  Ge     Ge        0.673706031731874    0.757333085052980    0.030983000649847  0.0000
  Ge     Ge        0.824363116758188    0.275947287254488    0.046274236824615  0.0000
  Si     Si        0.651727527920038    0.340617521970946    0.732547349792097  0.0000
  Si     Si        0.347527690883915    0.331953194521603    0.279159792202894  0.0000
  Si     Si        0.149457667176330    0.697940031776227    0.994144855657336  0.0000
  Si     Si        0.168909153003652    0.294218362436159    0.986028058894645  0.0000
  O1     O1        0.126401481057008    0.140427367281122    0.384871452065322  0.0000
  O1     O1        0.385891970714987    0.862223989611626    0.383164107681471  0.0000
  O1     O1        0.874344904315747    0.121562869167697    0.653230062645592  0.0000
  O1     O1        0.618134789599392    0.874892583636401    0.626943715366640  0.0000
  O1     O1        0.918366328849752    0.785069397907646    0.640619481791887  0.0000
  O3     O3        0.594300855055932    0.232907451215803    0.646966907416333  0.0000
  O1     O1        0.088844506729367    0.796284223811098    0.385821146971373  0.0000
  O3     O3        0.409067615716179    0.225011294060684    0.357739492182490  0.0000
  O1     O1        0.979669821060798    0.030020518296295    0.472746151839914  0.0000
  O1     O1        0.477542902381276    0.029962661988442    0.550950304725430  0.0000
  O1     O1        0.019892034054681    0.037483333030005    0.219549429640672  0.0000
  O1     O1        0.526918480798265    0.003036950883218    0.304185666761779  0.0000
  O1     O1        0.028723223915981    0.023910850299863    0.718183851921709  0.0000
  O1     O1        0.517119700607681    0.995170409169597    0.802541392007942  0.0000
  O1     O1        0.578380995772612    0.241096681748459    0.115966150057678  0.0000
  O1     O1        0.916073792811936    0.792668600917458    0.126271239016178  0.0000
  O1     O1        0.407806395169250    0.229987486985369    0.890181098491843  0.0000
  O3     O3        0.094576832423956    0.806597805772447    0.903178990648332  0.0000
  O1     O1        0.369790500560410    0.891007271478033    0.883952591400053  0.0000
  O3     O3        0.121502134041851    0.176461852362294    0.892200934350181  0.0000
  O1     O1        0.629873490240404    0.901719188071780    0.125651067672081  0.0000
  O1     O1        0.874416708550481    0.136042797089700    0.138731870803004  0.0000
  O1     O1        0.478551354786647    0.980778901195448    0.054353845000708  0.0000
  O1     O1        0.980173362752674    0.038717739063315    0.963238175974017  0.0000
  O1     O1        0.156641963794726    0.479629257705736    0.339309261292085  0.0000
  O3     O3        0.338425845672544    0.522389845665375    0.333176597997744  0.0000
  O1     O1        0.843940688370186    0.472643675993297    0.672054075740394  0.0000
  O3     O3        0.661880423420196    0.530531976889615    0.677198655230219  0.0000
  O3     O3        0.268488934141930    0.232779164582356    0.288485424267466  0.0000
  O1     O1        0.237579932121863    0.787032270937645    0.302352109327386  0.0000
  O3     O3        0.731038990051936    0.238881374151749    0.735491463483130  0.0000
  O1     O1        0.766096935908044    0.783499209866907    0.714983183853708  0.0000
  O3     O3        0.142916353577291    0.258328027237078    0.129296254623118  0.0000
  O1     O1        0.359468942211200    0.762998184678043    0.134337531393350  0.0000
  O1     O1        0.855636772305284    0.268043643454648    0.892091222792138  0.0000
  O1     O1        0.641838471020079    0.772577292436795    0.876358124271307  0.0000
  O1     O1        0.881728354592256    0.672423808865901    0.881877978233152  0.0000
  O3     O3        0.621100485655376    0.352259557290138    0.875665348400346  0.0000
  O3     O3        0.118946733330631    0.706320838618109    0.136706937568037  0.0000
  O3     O3        0.372935343419785    0.342104519173147    0.133297421766984  0.0000
  O1     O1        0.657045726556486    0.551892918913201    0.086827231557117  0.0000
  O1     O1        0.838543968846220    0.482856289854254    0.099413733456294  0.0000
  O1     O1        0.342604149090287    0.548652004323271    0.919798202246157  0.0000
  O2     O2        0.157296311501233    0.497890411465780    0.953812214307409  0.0000
  O1     O1        0.730158127390749    0.235340438203854    0.051706091702691  0.0000
  O1     O1        0.768235693683578    0.793754788944913    0.031717183313215  0.0000
  O3     O3        0.256234199069465    0.250879524043639    0.969713791595625  0.0000
  O3     O3        0.230552980277175    0.785405960678027    0.988896938857989  0.0000
