data_c00010.vasp
_audit_creation_method             Generated by GULP
_audit_author_name                 Salvador R. G. Balestra
_symmetry_space_group_name_H-M     'P 1             '
_symmetry_Int_Tables_number        1

loop_
_symmetry_equiv_pos_site_id
_symmetry_equiv_pos_as_xyz
_cell_length_a                       17.5807
_cell_length_b                        7.7943
_cell_length_c                       10.4008
_cell_angle_alpha                   89.1665
_cell_angle_beta                    90.1667
_cell_angle_gamma                   91.6197

loop_
_atom_site_label
_atom_site_type_symbol
_atom_site_fract_x
_atom_site_fract_y
_atom_site_fract_z
_atom_site_charge
  Ge     Ge        0.052090000000021    0.000000000000000    0.372269999999958  0.0000
  Ge     Ge        0.456068761721095    0.057388450107926    0.373540350558035  0.0000
  Ge     Ge        0.959383477673878    0.067167243169747    0.633064072438734  0.0000
  Ge     Ge        0.558784047814588    0.008255690713720    0.627395399577057  0.0000
  Ge     Ge        0.554857858455385    0.983982640248202    0.116919595461429  0.0000
  Ge     Ge        0.951343652125567    0.044402306431114    0.110167654464255  0.0000
  Ge     Ge        0.449022212698883    0.062583956378340    0.867777540469650  0.0000
  Ge     Ge        0.068125277754981    0.007015895073690    0.873320305680799  0.0000
  Ge     Ge        0.178888122679165    0.281470886777233    0.294976635152896  0.0000
  Ge     Ge        0.330613782484755    0.777240698678498    0.296580262317162  0.0000
  Ge     Ge        0.863675257162144    0.373959046892923    0.740757507917425  0.0000
  Ge     Ge        0.653549173940112    0.695304125601058    0.747126736226896  0.0000
  Ge     Ge        0.832704643629336    0.780539372657167    0.750000466165320  0.0000
  Ge     Ge        0.681959449622512    0.292816935606350    0.733409420202557  0.0000
  Ge     Ge        0.150496675110125    0.691732922987528    0.294917828744677  0.0000
  Ge     Ge        0.357835666463253    0.371872315898421    0.301760131001958  0.0000
  Ge     Ge        0.678150443145547    0.276106217423746    0.042674112322544  0.0000
  Ge     Ge        0.358474811671738    0.376888544524791    0.987315863598391  0.0000
  Ge     Ge        0.331044120107316    0.776316488274974    0.985813297369685  0.0000
  Ge     Ge        0.657168805923703    0.672741935861544    0.066452438502071  0.0000
  Si     Si        0.833438370855242    0.750074648888390    0.057913692589942  0.0000
  Si     Si        0.152392919383594    0.692022096135706    0.994279108054840  0.0000
  Si     Si        0.179928088602697    0.297340427560014    0.990902138714878  0.0000
  Si     Si        0.856888318437784    0.358481393519796    0.041453674758625  0.0000
  O1     O1        0.127480242003680    0.144506725305067    0.391234781643506  0.0000
  O1     O1        0.380481931378036    0.914585467923255    0.393673670841220  0.0000
  O1     O1        0.933172338696118    0.274969233310087    0.656793863719880  0.0000
  O1     O1        0.582338049039149    0.804020591088747    0.672569353010874  0.0000
  O1     O1        0.882106038983201    0.937572120437091    0.669745427374838  0.0000
  O1     O1        0.635258946515596    0.146838214259124    0.638235066842616  0.0000
  O1     O1        0.085591863440320    0.795386497077061    0.385702585646595  0.0000
  O1     O1        0.424051794680725    0.262058701128249    0.389495642603094  0.0000
  O1     O1        0.979157748646412    0.038194953356168    0.472656413815985  0.0000
  O1     O1        0.531488759857349    0.010079416998968    0.467795315374480  0.0000
  O1     O1        0.024383260910170    0.029665055540227    0.214401811995102  0.0000
  O1     O1        0.483353270678970    0.038751220664815    0.214103135557693  0.0000
  O1     O1        0.040899725370881    0.016252557698353    0.714743490874326  0.0000
  O1     O1        0.479990845669908    0.068463745803134    0.711587656206609  0.0000
  O1     O1        0.634010197557340    0.118791946749004    0.130731432932129  0.0000
  O3     O3        0.885224830946249    0.877447802452627    0.141809701247592  0.0000
  O1     O1        0.425076082726908    0.268034536017489    0.905743361496308  0.0000
  O3     O3        0.098362472004360    0.799331502288877    0.901315443263824  0.0000
  O1     O1        0.368767355759137    0.933438971981893    0.888057741839792  0.0000
  O3     O3        0.137454622408656    0.165319868416629    0.897297315926629  0.0000
  O1     O1        0.589870792260405    0.782542521220110    0.146353736831782  0.0000
  O3     O3        0.908611999063576    0.241806904834550    0.131058174958372  0.0000
  O1     O1        0.522191297173200    0.988407110598614    0.960271462443554  0.0000
  O1     O1        0.986362877178674    0.040330885672309    0.956520702331236  0.0000
  O1     O1        0.163900091978198    0.487717931740434    0.346846382603508  0.0000
  O1     O1        0.343729307372420    0.572001492173187    0.357639935848920  0.0000
  O1     O1        0.852753897009750    0.581737670793499    0.690137427095788  0.0000
  O1     O1        0.665205127488032    0.498548771196205    0.679662071999145  0.0000
  O1     O1        0.274370670249041    0.248708810871013    0.304076411275220  0.0000
  O1     O1        0.234809719682984    0.810635977778019    0.298057793868816  0.0000
  O1     O1        0.778065747620626    0.263187071228075    0.727522263262542  0.0000
  O1     O1        0.737357911508827    0.814834542163678    0.735305140870794  0.0000
  O3     O3        0.150223858319315    0.264242728872653    0.134950731760795  0.0000
  O1     O1        0.364591199719328    0.795029082337593    0.140837503170296  0.0000
  O3     O3        0.892875038864360    0.375629950351666    0.900364640955962  0.0000
  O1     O1        0.633689655358612    0.659841734450902    0.906187652149536  0.0000
  O3     O3        0.857901785477891    0.783313302358094    0.910851625592327  0.0000
  O1     O1        0.645552792356408    0.265143303728597    0.886375551005304  0.0000
  O3     O3        0.117719410735129    0.688230646212471    0.136469683824935  0.0000
  O1     O1        0.386662905836247    0.392804367010962    0.144344855460477  0.0000
  O1     O1        0.659607667349982    0.465451430476869    0.118897653841268  0.0000
  O2     O2        0.845771208499690    0.549212088938256    0.097678416728209  0.0000
  O1     O1        0.353470891361867    0.580457545497501    0.924827405553356  0.0000
  O2     O2        0.163841047826549    0.495884890509208    0.948660362247399  0.0000
  O3     O3        0.775379531396736    0.260973616284742    0.027806158301064  0.0000
  O3     O3        0.744735749955222    0.782428180107209    0.077413379721701  0.0000
  O3     O3        0.269890796343446    0.271478516436983    0.983605907703860  0.0000
  O3     O3        0.233599849608525    0.791131144672387    0.996763866826836  0.0000
