data_c00091.vasp
_audit_creation_method             Generated by GULP
_audit_author_name                 Salvador R. G. Balestra
_symmetry_space_group_name_H-M     'P 1             '
_symmetry_Int_Tables_number        1

loop_
_symmetry_equiv_pos_site_id
_symmetry_equiv_pos_as_xyz
_cell_length_a                       17.8302
_cell_length_b                        7.7581
_cell_length_c                       10.5029
_cell_angle_alpha                   89.9530
_cell_angle_beta                    90.0426
_cell_angle_gamma                   89.0699

loop_
_atom_site_label
_atom_site_type_symbol
_atom_site_fract_x
_atom_site_fract_y
_atom_site_fract_z
_atom_site_charge
  Ge     Ge        0.052090000000021    0.000000000000000    0.372269999999958  0.0000
  Ge     Ge        0.451891755779738    0.022782320233201    0.405181287608353  0.0000
  Ge     Ge        0.955883828633521    0.970681310084443    0.629363506047178  0.0000
  Ge     Ge        0.557135477926243    0.017328197357280    0.659680617856754  0.0000
  Ge     Ge        0.559925963011827    0.031229801202390    0.160668878984265  0.0000
  Ge     Ge        0.951250984641928    0.010509542371890    0.111608515228496  0.0000
  Ge     Ge        0.453408280274749    0.023415078462517    0.913491252728468  0.0000
  Ge     Ge        0.063437090765146    0.000253652790874    0.873789544525043  0.0000
  Ge     Ge        0.176481703192624    0.270108141434021    0.294365102484903  0.0000
  Ge     Ge        0.332728565889788    0.737129204686910    0.301377077760436  0.0000
  Ge     Ge        0.831715339230415    0.259438489837969    0.749275160292256  0.0000
  Ge     Ge        0.676866055382140    0.728714496466075    0.727296882033564  0.0000
  Ge     Ge        0.857765595494740    0.663073220491799    0.724047974032176  0.0000
  Ge     Ge        0.155198340041426    0.680686644445939    0.306087014885248  0.0000
  Ge     Ge        0.653189810939008    0.345429164072606    0.050206503875110  0.0000
  Ge     Ge        0.858974183182627    0.683034067420177    0.032115128551069  0.0000
  Ge     Ge        0.355600342721575    0.345618906776069    0.985293959863319  0.0000
  Ge     Ge        0.329569417677822    0.755713126456216    0.992092772070488  0.0000
  Ge     Ge        0.178027233462888    0.284066748706262    0.986455221857175  0.0000
  Ge     Ge        0.678084608930935    0.756094320456953    0.033288373494467  0.0000
  Si     Si        0.657454951019616    0.321201124724209    0.744875569602774  0.0000
  Si     Si        0.351404413719111    0.329972506262707    0.288603674289596  0.0000
  Si     Si        0.155799460588923    0.690044307751551    0.000566228137459  0.0000
  Si     Si        0.828874174902729    0.291311109079572    0.056009279504925  0.0000
  O1     O1        0.128559622405717    0.131793978850035    0.388829351206877  0.0000
  O1     O1        0.388771061006229    0.858855038345394    0.395936875751115  0.0000
  O1     O1        0.881835637486149    0.093941960172678    0.685791603717651  0.0000
  O1     O1        0.622685134609000    0.857201349759901    0.629098417761744  0.0000
  O1     O1        0.922032674653561    0.765500141869782    0.630123344110288  0.0000
  O3     O3        0.599050538412002    0.217386896689926    0.660143119289764  0.0000
  O1     O1        0.086488214072132    0.792250482799683    0.385688819296885  0.0000
  O3     O3        0.411263411753917    0.220690756620887    0.369339453136616  0.0000
  O1     O1        0.980957927353986    0.032470614239859    0.478324675153166  0.0000
  O1     O1        0.482070845628263    0.024406964432087    0.559950049895341  0.0000
  O1     O1        0.019020283722107    0.043512604719013    0.221790669812607  0.0000
  O1     O1        0.530917356935011    0.995936384731889    0.313746594323810  0.0000
  O1     O1        0.036256328768341    0.989931486487553    0.717790034428651  0.0000
  O1     O1        0.521555618728806    0.973543675574941    0.808462401964661  0.0000
  O1     O1        0.586604358548084    0.241775820158076    0.135281550676528  0.0000
  O1     O1        0.918543666920914    0.803933280152729    0.121903135941427  0.0000
  O1     O1        0.423052764019804    0.234756185745665    0.902634623904864  0.0000
  O3     O3        0.093815990438563    0.797810969321843    0.923721964641005  0.0000
  O1     O1        0.374450699517334    0.898272980017254    0.898205757736047  0.0000
  O1     O1        0.130195017609154    0.155863841193584    0.883820973909224  0.0000
  O1     O1        0.638827406924121    0.909213247306544    0.128946843135684  0.0000
  O3     O3        0.876198787057556    0.153129822006726    0.135620698778655  0.0000
  O1     O1        0.486876645112227    0.978280170722799    0.064089447320786  0.0000
  O1     O1        0.986271990532396    0.053647323428243    0.962913078951936  0.0000
  O1     O1        0.161013345926450    0.472861766194211    0.356602967023478  0.0000
  O3     O3        0.339661784589982    0.520418036416265    0.344705765318087  0.0000
  O1     O1        0.852115647833082    0.451912121765771    0.677131140838825  0.0000
  O3     O3        0.666841722466326    0.511770189863052    0.690327272830437  0.0000
  O3     O3        0.272544515480919    0.230141528293469    0.290322068875762  0.0000
  O1     O1        0.239013775902133    0.786222857674159    0.319345002975242  0.0000
  O3     O3        0.736843997739410    0.218108932303210    0.739040366896928  0.0000
  O1     O1        0.770914983739752    0.763592889016203    0.713118759230587  0.0000
  O1     O1        0.146499211520008    0.253414947559194    0.138813314762860  0.0000
  O1     O1        0.360099440031044    0.767731837114466    0.147261334844246  0.0000
  O3     O3        0.852312730458705    0.290608921688748    0.907827968585460  0.0000
  O1     O1        0.645928059922460    0.768441715544864    0.879182504208018  0.0000
  O1     O1        0.891086465182455    0.677363780237185    0.878104180662082  0.0000
  O3     O3        0.629172879010414    0.327790739537590    0.890501608202712  0.0000
  O3     O3        0.130163913224317    0.673886692490683    0.146163485743916  0.0000
  O3     O3        0.381370769916535    0.345785153908188    0.145139837721185  0.0000
  O1     O1        0.655942010078286    0.556260395102926    0.093671733308863  0.0000
  O3     O3        0.847229831421062    0.484407288253508    0.103249721358241  0.0000
  O1     O1        0.347964198034869    0.552077599044795    0.932925427070872  0.0000
  O3     O3        0.167095710005998    0.500225590817214    0.943198676976709  0.0000
  O3     O3        0.741483171258082    0.252512608262357    0.071411541005465  0.0000
  O1     O1        0.772659636665471    0.783729900215793    0.024968606298942  0.0000
  O1     O1        0.271966894956853    0.239347084880008    0.975420023447434  0.0000
  O3     O3        0.233600482609876    0.793307253736053    0.994135788756212  0.0000
