data_c00075.vasp
_audit_creation_method             Generated by GULP
_audit_author_name                 Salvador R. G. Balestra
_symmetry_space_group_name_H-M     'P 1             '
_symmetry_Int_Tables_number        1

loop_
_symmetry_equiv_pos_site_id
_symmetry_equiv_pos_as_xyz
_cell_length_a                       17.0332
_cell_length_b                        7.7191
_cell_length_c                       10.8496
_cell_angle_alpha                   88.6715
_cell_angle_beta                    88.1712
_cell_angle_gamma                   88.4554

loop_
_atom_site_label
_atom_site_type_symbol
_atom_site_fract_x
_atom_site_fract_y
_atom_site_fract_z
_atom_site_charge
  Ge     Ge        0.052090000000021    0.000000000000000    0.372269999999958  0.0000
  Ge     Ge        0.456409040487181    0.979214366770473    0.380098560454814  0.0000
  Ge     Ge        0.983502211414335    0.971593553540844    0.651124764742491  0.0000
  Ge     Ge        0.562133283715331    0.983049135513327    0.631776771514087  0.0000
  Ge     Ge        0.569268426035713    0.949469622513174    0.134714122066502  0.0000
  Ge     Ge        0.933027366329428    0.953765198919502    0.146420852764146  0.0000
  Ge     Ge        0.463412524294579    0.986556836272410    0.892333152003370  0.0000
  Ge     Ge        0.065645372055590    0.998187804310001    0.916945772965870  0.0000
  Ge     Ge        0.147331600882453    0.331070036997577    0.294587624306000  0.0000
  Ge     Ge        0.357221685952093    0.673982055404968    0.274890530375524  0.0000
  Ge     Ge        0.879766386688769    0.290911066145521    0.722754973414599  0.0000
  Ge     Ge        0.660806636757685    0.655939889518264    0.737109419713531  0.0000
  Ge     Ge        0.847154671067323    0.706242375907487    0.751691376063172  0.0000
  Ge     Ge        0.689142398054170    0.237132004393335    0.706459210727244  0.0000
  Ge     Ge        0.671965553232239    0.209774464433753    0.992162675213734  0.0000
  Ge     Ge        0.833325576702676    0.649284488084702    0.050592143721526  0.0000
  Ge     Ge        0.334491209983165    0.256245139097123    0.992330603062827  0.0000
  Ge     Ge        0.371899462045339    0.659638647345731    0.981174328245247  0.0000
  Ge     Ge        0.145407808048210    0.341744805193663    0.991986841868145  0.0000
  Ge     Ge        0.647595338078825    0.606395006115780    0.034996980395834  0.0000
  Si     Si        0.179920457477177    0.715874095832209    0.277478346376249  0.0000
  Si     Si        0.332102447735870    0.264441294467270    0.282066958818778  0.0000
  Si     Si        0.191913166709777    0.714676587601532    0.986673815021695  0.0000
  Si     Si        0.856143688523457    0.267667519460279    0.002178345328140  0.0000
  O1     O1        0.084664227952099    0.207354846229881    0.383189661776011  0.0000
  O1     O1        0.421934279877053    0.774715049356143    0.364634147187183  0.0000
  O1     O1        0.951639441382041    0.185697212681741    0.638024135938338  0.0000
  O1     O1        0.595859999990149    0.772683102131679    0.649056615375478  0.0000
  O1     O1        0.897576059612114    0.862157042230241    0.672189846415013  0.0000
  O1     O1        0.641004412096098    0.115606133735707    0.603439520864475  0.0000
  O3     O3        0.127292363034206    0.887322490101971    0.292836668438776  0.0000
  O3     O3        0.380712781220953    0.131740949524141    0.366781124812628  0.0000
  O1     O1        0.033778489457636    0.916798411256038    0.517450290814535  0.0000
  O1     O1        0.493272740808392    0.000579542708037    0.521736885661577  0.0000
  O1     O1        0.969055080210645    0.993437157372078    0.287848722677826  0.0000
  O1     O1        0.532571482865608    0.011344474487135    0.274302609861609  0.0000
  O1     O1        0.042043784190208    0.930184523585142    0.774583878750154  0.0000
  O1     O1        0.512695289148476    0.052191860890056    0.763014057457038  0.0000
  O1     O1        0.658616793065049    0.051696018922756    0.100902967907296  0.0000
  O1     O1        0.879226670813098    0.770615929252422    0.155668428226507  0.0000
  O1     O1        0.373884689077752    0.095514669980910    0.904960902163487  0.0000
  O3     O3        0.156058759629806    0.901018922433353    0.955296229331215  0.0000
  O1     O1        0.441517633725903    0.768990301719292    0.894525937145854  0.0000
  O1     O1        0.080904564725616    0.217156624468711    0.916173820204470  0.0000
  O1     O1        0.581560332711158    0.730188800647705    0.123356575288960  0.0000
  O3     O3        0.869679502714053    0.126203590329259    0.108281312502919  0.0000
  O1     O1        0.515746263263549    0.044577207444445    0.017505573653028  0.0000
  O1     O1        0.003471950140720    0.927276241914562    0.032472219219754  0.0000
  O3     O3        0.131242338037006    0.550521190093096    0.325401100917718  0.0000
  O3     O3        0.371681243855821    0.451763012462324    0.276941502101005  0.0000
  O1     O1        0.893659371112682    0.507772246042044    0.728299363764039  0.0000
  O1     O1        0.646591806483140    0.440004748315502    0.718760632113127  0.0000
  O3     O3        0.243249835038287    0.286596384048219    0.334280703916161  0.0000
  O3     O3        0.264128706063633    0.729779214222171    0.337095452007788  0.0000
  O1     O1        0.787588314019291    0.250534483077543    0.670649625228306  0.0000
  O1     O1        0.755538066899627    0.702539048932442    0.691435676734912  0.0000
  O1     O1        0.126809439051101    0.287743000947601    0.144932015421050  0.0000
  O1     O1        0.378604521938841    0.745280206255758    0.126739301134783  0.0000
  O3     O3        0.894681506299744    0.203050941486303    0.872618582960116  0.0000
  O1     O1        0.647508988104545    0.704761579862971    0.890353163710567  0.0000
  O1     O1        0.838303581130731    0.749135543012617    0.906505062533414  0.0000
  O1     O1        0.668188962236078    0.131784465102360    0.846003009933939  0.0000
  O2     O2        0.206945665478835    0.673320572482040    0.134186342488590  0.0000
  O3     O3        0.330297761813337    0.187700805200102    0.146048799152189  0.0000
  O1     O1        0.618214791098485    0.396934045188298    0.029019123596330  0.0000
  O3     O3        0.886709401471697    0.453206215580624    0.040694955780441  0.0000
  O1     O1        0.389413998718613    0.441458618133781    0.977971248719863  0.0000
  O3     O3        0.133089865810074    0.562049346102426    0.953950160919493  0.0000
  O3     O3        0.764284871488201    0.308716568166979    0.976995777103231  0.0000
  O1     O1        0.737870873090826    0.627249589341690    0.100066243191622  0.0000
  O1     O1        0.240912988639716    0.300005533277680    0.947111150571608  0.0000
  O3     O3        0.277863006149789    0.697060864805037    0.924628138083087  0.0000
