data_c00006.vasp
_audit_creation_method             Generated by GULP
_audit_author_name                 Salvador R. G. Balestra
_symmetry_space_group_name_H-M     'P 1             '
_symmetry_Int_Tables_number        1

loop_
_symmetry_equiv_pos_site_id
_symmetry_equiv_pos_as_xyz
_cell_length_a                       17.6521
_cell_length_b                        7.7940
_cell_length_c                       10.3524
_cell_angle_alpha                   89.9990
_cell_angle_beta                    90.0000
_cell_angle_gamma                   90.7570

loop_
_atom_site_label
_atom_site_type_symbol
_atom_site_fract_x
_atom_site_fract_y
_atom_site_fract_z
_atom_site_charge
  Ge     Ge        0.052090000000021    0.000000000000000    0.372269999999958  0.0000
  Ge     Ge        0.451074566528443    0.046842052175762    0.372258289805251  0.0000
  Ge     Ge        0.952819239443740    0.046646861350269    0.630390205001504  0.0000
  Ge     Ge        0.550341351953312    0.000222884918526    0.630390061956591  0.0000
  Ge     Ge        0.561013747661679    0.994606927687966    0.132537222839051  0.0000
  Ge     Ge        0.942145015276814    0.052256880362452    0.132550249203435  0.0000
  Ge     Ge        0.449695601985091    0.054577504797580    0.889561414279468  0.0000
  Ge     Ge        0.053461208282113    0.992311189059436    0.889564064145916  0.0000
  Ge     Ge        0.175998350426875    0.281148185562712    0.263678791076212  0.0000
  Ge     Ge        0.327169030304686    0.765693433506742    0.263683439678842  0.0000
  Ge     Ge        0.853812425308731    0.362261451882912    0.703366656272816  0.0000
  Ge     Ge        0.649350516250482    0.684597794717812    0.703348463482595  0.0000
  Ge     Ge        0.827443772363471    0.770309852687777    0.704096585224163  0.0000
  Ge     Ge        0.675715145690882    0.276560075998356    0.704099695233314  0.0000
  Ge     Ge        0.148172368750951    0.686580122195040    0.256705621891699  0.0000
  Ge     Ge        0.354991113756597    0.360269506548562    0.256693400969024  0.0000
  Ge     Ge        0.676385874266794    0.286970235082121    0.016772888463008  0.0000
  Ge     Ge        0.826768529176761    0.759904270658162    0.016775991564989  0.0000
  Ge     Ge        0.329720407552441    0.758167922944649    0.950691096738146  0.0000
  Ge     Ge        0.173440122289963    0.288712708154718    0.950680075031328  0.0000
  Si     Si        0.349127823904010    0.364431163052629    0.947129759847583  0.0000
  Si     Si        0.154028219832271    0.682459061229949    0.947152022685228  0.0000
  Si     Si        0.649947821086009    0.683394233925320    0.011410822849485  0.0000
  Si     Si        0.853210793325909    0.363469424626995    0.011417138128076  0.0000
  O1     O1        0.128493695377367    0.134790445329442    0.356721406401887  0.0000
  O1     O1        0.374671568597951    0.912046719564218    0.356732001853933  0.0000
  O1     O1        0.921143805347199    0.253956594563245    0.618530044151495  0.0000
  O1     O1        0.582011696676660    0.792908412969244    0.618532742107661  0.0000
  O1     O1        0.877578536460466    0.906905773049311    0.607010829450064  0.0000
  O1     O1        0.625586141606614    0.139953221452086    0.607016189650332  0.0000
  O1     O1        0.076230345454119    0.794764169886915    0.328844941671071  0.0000
  O1     O1        0.426939069102169    0.252073694859957    0.328804039258347  0.0000
  O1     O1        0.027471144425229    0.003853385000814    0.533545641102575  0.0000
  O1     O1        0.475694803538537    0.043023900717602    0.533533774376870  0.0000
  O1     O1        0.972457773397834    0.062367779137565    0.290080883289684  0.0000
  O1     O1        0.530704482791475    0.984460988943172    0.290069173572357  0.0000
  O1     O1        0.978881154055185    0.016545278501136    0.789722665746345  0.0000
  O1     O1        0.524273383851999    0.030322250085707    0.789718400652591  0.0000
  O1     O1        0.633363145538584    0.142883803850780    0.117715543739763  0.0000
  O1     O1        0.869797779060317    0.903975277476148    0.117718024412947  0.0000
  O3     O3        0.409128632701081    0.255032952160363    0.868383729980756  0.0000
  O3     O3        0.094036051029626    0.791865659397462    0.868389041874524  0.0000
  O1     O1        0.381518111631693    0.898651652034285    0.860046388992397  0.0000
  O1     O1        0.121633347026173    0.148248674647851    0.860037892631207  0.0000
  O3     O3        0.588515067156703    0.789908071654536    0.089758195427976  0.0000
  O3     O3        0.914630588659412    0.256961222469440    0.089804550780296  0.0000
  O1     O1        0.482372056732314    0.050199191262213    0.045987873519733  0.0000
  O1     O1        0.020787280889790    0.996697753786495    0.045991575806668  0.0000
  O1     O1        0.159320165756264    0.485477168043965    0.319941640556889  0.0000
  O1     O1        0.343849020123387    0.561363005231632    0.319946105659479  0.0000
  O1     O1        0.840862435276108    0.564063213152039    0.646791005345811  0.0000
  O1     O1        0.662295603682963    0.482797689208560    0.646769479000375  0.0000
  O1     O1        0.271658224307633    0.244939917082244    0.270793049765736  0.0000
  O1     O1        0.231508687223323    0.801898115361661    0.270791952004097  0.0000
  O1     O1        0.771294665915972    0.241401104814999    0.698771079636618  0.0000
  O1     O1        0.731864871449595    0.805468824724449    0.698744532345153  0.0000
  O1     O1        0.144027731845475    0.260191787830263    0.107302546386997  0.0000
  O1     O1        0.359143031251402    0.786672894123589    0.107309696818533  0.0000
  O3     O3        0.880294123252578    0.383742886259780    0.864212321603550  0.0000
  O3     O3        0.622887728364855    0.663081737763810    0.864199615081058  0.0000
  O1     O1        0.858221451163214    0.789542655695615    0.862121232295304  0.0000
  O1     O1        0.644928432228412    0.257333531903194    0.862120743697675  0.0000
  O3     O3        0.128505207664153    0.653495540414185    0.095075070715261  0.0000
  O3     O3        0.374632069003528    0.393405290121285    0.095060755695666  0.0000
  O3     O3        0.658711324010393    0.494171644757980    0.070321777592855  0.0000
  O3     O3        0.844442613967479    0.552695360839773    0.070311711496156  0.0000
  O3     O3        0.341609256513661    0.552999076858085    0.888083750171130  0.0000
  O3     O3        0.161551176760949    0.493898476377846    0.888101150315360  0.0000
  O3     O3        0.773530635806452    0.259670265615330    0.016596286372186  0.0000
  O3     O3        0.729623703646170    0.787207489165445    0.016616916031677  0.0000
  O3     O3        0.270207038947817    0.256559361094050    0.947502721820722  0.0000
  O3     O3        0.232952724979269    0.790317442312398    0.947546648304570  0.0000
