data_c00070.vasp
_audit_creation_method             Generated by GULP
_audit_author_name                 Salvador R. G. Balestra
_symmetry_space_group_name_H-M     'P 1             '
_symmetry_Int_Tables_number        1

loop_
_symmetry_equiv_pos_site_id
_symmetry_equiv_pos_as_xyz
_cell_length_a                       17.6216
_cell_length_b                        7.7794
_cell_length_c                       10.1250
_cell_angle_alpha                   89.2379
_cell_angle_beta                    91.2622
_cell_angle_gamma                   87.3736

loop_
_atom_site_label
_atom_site_type_symbol
_atom_site_fract_x
_atom_site_fract_y
_atom_site_fract_z
_atom_site_charge
  Ge     Ge        0.052090000000021    0.000000000000000    0.372269999999958  0.0000
  Ge     Ge        0.445185048624705    0.967176505709498    0.357790320110257  0.0000
  Ge     Ge        0.939469836051013    0.964313022143397    0.615148960568829  0.0000
  Ge     Ge        0.529686655004617    0.050303650326451    0.626457293104596  0.0000
  Ge     Ge        0.565891890914508    0.022149183409288    0.140285650862993  0.0000
  Ge     Ge        0.939437696356859    0.941756923030312    0.124511307051931  0.0000
  Ge     Ge        0.444800926532793    0.955949134133820    0.901209590336999  0.0000
  Ge     Ge        0.044306807268963    0.007681498987579    0.873090676524040  0.0000
  Ge     Ge        0.149396040578053    0.302228039662747    0.255185862854044  0.0000
  Ge     Ge        0.357962028176227    0.639652483326996    0.261137228760658  0.0000
  Ge     Ge        0.814519030934753    0.252034850588260    0.684672821623703  0.0000
  Ge     Ge        0.658892839710942    0.757199317840382    0.701688542201009  0.0000
  Ge     Ge        0.837835622793095    0.660636023150261    0.690474658290681  0.0000
  Ge     Ge        0.636693648930106    0.348640094092015    0.692790930067654  0.0000
  Ge     Ge        0.177092636682034    0.714346905071587    0.258198697660056  0.0000
  Ge     Ge        0.171757225387515    0.717727875004285    0.939428680410483  0.0000
  Ge     Ge        0.352242948726543    0.631214028882015    0.932265426837520  0.0000
  Ge     Ge        0.145063438081283    0.311698759354764    0.940493149050278  0.0000
  Ge     Ge        0.672774410059135    0.729109389445442    0.017575397582706  0.0000
  Ge     Ge        0.820845103252296    0.243975747126331    0.005556534561277  0.0000
  Si     Si        0.322944807195562    0.260199385248295    0.256114394378821  0.0000
  Si     Si        0.644061486082181    0.336816616029441    0.009835705934897  0.0000
  Si     Si        0.850484329377517    0.637472470484478    0.001426036435598  0.0000
  Si     Si        0.318257120736872    0.256432326821794    0.944486880996242  0.0000
  O1     O1        0.082469518608681    0.203416311645490    0.346028106125245  0.0000
  O1     O1        0.425216178216837    0.755017507724907    0.342357829144528  0.0000
  O1     O1        0.867819020739077    0.120562479265437    0.585843970474105  0.0000
  O1     O1        0.602394271772542    0.896591844611806    0.608010491818728  0.0000
  O1     O1        0.900538983126526    0.766916363442201    0.596767287917229  0.0000
  O1     O1        0.566342764567953    0.250190500337333    0.608794443952509  0.0000
  O1     O1        0.127882545034234    0.858078772191103    0.353792766935578  0.0000
  O3     O3        0.369688252439162    0.081945118413805    0.279575326501751  0.0000
  O1     O1        0.020728588708987    0.991395414656545    0.532847554188501  0.0000
  O1     O1        0.454540446373111    0.017180301484274    0.522492831011453  0.0000
  O1     O1        0.971583249573762    0.946191299640866    0.285480421935307  0.0000
  O1     O1        0.531679420569051    0.021868783570070    0.297541542705029  0.0000
  O1     O1        0.965028869573511    0.977069864214928    0.780685469098931  0.0000
  O1     O1        0.500801299603232    0.043749460012366    0.787935900414445  0.0000
  O3     O3        0.584454586195749    0.229560255270618    0.091081691137139  0.0000
  O3     O3        0.910202169648977    0.737151923948092    0.088681647500482  0.0000
  O3     O3        0.359398868405963    0.075730425638247    0.921098770074768  0.0000
  O1     O1        0.118937274939535    0.862816859195205    0.844981900922922  0.0000
  O1     O1        0.415987517878087    0.756513907021410    0.854698781458851  0.0000
  O1     O1        0.078766828302429    0.208840610647971    0.848777045387812  0.0000
  O1     O1        0.642116433736889    0.879010209826140    0.128282343015756  0.0000
  O1     O1        0.865536352441177    0.092487119228830    0.105214595985274  0.0000
  O1     O1        0.491044300862938    0.944616084410174    0.051170314425771  0.0000
  O1     O1        0.017157221015441    0.984195993907231    0.035474447327047  0.0000
  O1     O1        0.133499647613596    0.520853223694285    0.259445410562467  0.0000
  O3     O3        0.372155929250056    0.419483881049686    0.300159524842104  0.0000
  O1     O1        0.821870273087919    0.462082835865699    0.630689109657951  0.0000
  O1     O1        0.646856855585431    0.553829073878561    0.639561216551355  0.0000
  O3     O3        0.241172255871402    0.254897282289791    0.321418729757127  0.0000
  O1     O1        0.268765786251169    0.690643407141467    0.317623216696406  0.0000
  O1     O1        0.718650454963998    0.220240371964632    0.680082652705977  0.0000
  O1     O1        0.754669962390152    0.787463837755636    0.694850721551690  0.0000
  O1     O1        0.139283237543901    0.227352289064130    0.098105124249982  0.0000
  O1     O1        0.364739823440485    0.682686173013111    0.096150127974530  0.0000
  O1     O1        0.847588760456198    0.221051260466588    0.845643867095575  0.0000
  O1     O1        0.631293675497204    0.774406332793072    0.864816470225087  0.0000
  O3     O3        0.875075916543016    0.626438614287820    0.849972829926537  0.0000
  O3     O3        0.616426721079306    0.367590999729661    0.859736596520875  0.0000
  O1     O1        0.179917477390299    0.790202358903742    0.098508476760194  0.0000
  O2     O2        0.301421805112442    0.302085225107954    0.099862583025280  0.0000
  O3     O3        0.652829397292186    0.523704110640778    0.072949009969266  0.0000
  O3     O3        0.842830039453891    0.447067531057202    0.060445212363700  0.0000
  O3     O3        0.368983055234455    0.413798759151726    0.898707727860223  0.0000
  O1     O1        0.125236534024562    0.527107462925086    0.939643518960454  0.0000
  O3     O3        0.723605918655583    0.225951797245559    0.013914769852828  0.0000
  O3     O3        0.769126656945312    0.742133575547532    0.000819599862345  0.0000
  O3     O3        0.235277137314955    0.265366762260074    0.877222872179255  0.0000
  O1     O1        0.260692137517112    0.679430652825755    0.878708780241162  0.0000
