data_c00050.vasp
_audit_creation_method             Generated by GULP
_audit_author_name                 Salvador R. G. Balestra
_symmetry_space_group_name_H-M     'P 1             '
_symmetry_Int_Tables_number        1

loop_
_symmetry_equiv_pos_site_id
_symmetry_equiv_pos_as_xyz
_cell_length_a                       17.4958
_cell_length_b                        7.8426
_cell_length_c                       10.3732
_cell_angle_alpha                   89.0614
_cell_angle_beta                    90.6506
_cell_angle_gamma                   87.8196

loop_
_atom_site_label
_atom_site_type_symbol
_atom_site_fract_x
_atom_site_fract_y
_atom_site_fract_z
_atom_site_charge
  Ge     Ge        0.052090000000021    0.000000000000000    0.372269999999958  0.0000
  Ge     Ge        0.449067790779471    0.945599948484795    0.361580405968934  0.0000
  Ge     Ge        0.947396480746718    0.946461874475588    0.621638393761420  0.0000
  Ge     Ge        0.548256636341653    0.007839381207494    0.617759680732909  0.0000
  Ge     Ge        0.563238686787812    0.992507070163359    0.126172931414211  0.0000
  Ge     Ge        0.938843826965352    0.944002252692770    0.131110736476884  0.0000
  Ge     Ge        0.452028733252081    0.946839587625900    0.878372942380004  0.0000
  Ge     Ge        0.043882385147036    0.013283893585875    0.881766281399494  0.0000
  Ge     Ge        0.148470165987233    0.311664549286908    0.258254715495612  0.0000
  Ge     Ge        0.358093000683600    0.627801662441029    0.254160414484729  0.0000
  Ge     Ge        0.825568859891983    0.230646694379071    0.703284551650657  0.0000
  Ge     Ge        0.670510009897475    0.720858895489990    0.707480483527420  0.0000
  Ge     Ge        0.851828382844128    0.637034786388078    0.703781901501779  0.0000
  Ge     Ge        0.644968620656548    0.310506277052271    0.703469144595734  0.0000
  Ge     Ge        0.174313986944705    0.709832086712288    0.260542222936146  0.0000
  Ge     Ge        0.852899082188865    0.623371858428065    0.014143690140595  0.0000
  Ge     Ge        0.324259034740017    0.235764121434558    0.942697787856764  0.0000
  Ge     Ge        0.171331335925295    0.723327066552734    0.948098489050122  0.0000
  Ge     Ge        0.353417712686785    0.635095504248882    0.942970580055708  0.0000
  Ge     Ge        0.143847796493111    0.322668201130984    0.942513185137076  0.0000
  Si     Si        0.328244516001063    0.236252021616154    0.250661161799638  0.0000
  Si     Si        0.648756954270030    0.306974866041217    0.004032154494494  0.0000
  Si     Si        0.669705966574201    0.695988907623876    0.010155050217752  0.0000
  Si     Si        0.828658661742015    0.234291170241954    0.006667714644427  0.0000
  O1     O1        0.083011882557425    0.201296149887630    0.343467874823144  0.0000
  O1     O1        0.422975224941989    0.739167421894361    0.341566193488754  0.0000
  O1     O1        0.874249509841556    0.098481807592770    0.601804429617436  0.0000
  O1     O1        0.621624223805930    0.856253669944506    0.603542364002511  0.0000
  O1     O1        0.913210954877411    0.745640205423480    0.606871217339528  0.0000
  O1     O1        0.581866616632492    0.210193497836104    0.605423905131062  0.0000
  O1     O1        0.127566500186555    0.859632597625885    0.351071541270251  0.0000
  O3     O3        0.372712696687609    0.084513488546900    0.327358775006760  0.0000
  O1     O1        0.025197223941808    0.983954244435572    0.531639434919356  0.0000
  O1     O1        0.471705156893087    0.972828006284382    0.522224707603990  0.0000
  O1     O1        0.969622588937815    0.958201305601952    0.288047988956293  0.0000
  O1     O1        0.531985775378222    0.990190296390024    0.282436352884136  0.0000
  O1     O1        0.970704474697358    0.967416641277275    0.783410582235935  0.0000
  O1     O1        0.524272646376284    0.985274249353478    0.778347639969379  0.0000
  O3     O3        0.602626971045727    0.190263829682126    0.100001660265200  0.0000
  O1     O1        0.910407907486187    0.738265409673186    0.110508200782461  0.0000
  O1     O1        0.375889565775368    0.092307340865340    0.856539053695952  0.0000
  O1     O1        0.120858486609584    0.872663867516463    0.858924440666814  0.0000
  O1     O1        0.416866163420147    0.747726919981846    0.854831933156434  0.0000
  O1     O1        0.075839357807447    0.216524654162010    0.859449458932571  0.0000
  O3     O3        0.631340359229412    0.829150267129268    0.106688441148535  0.0000
  O3     O3        0.860021293747006    0.079807921121709    0.096242256357387  0.0000
  O1     O1        0.482983327124158    0.964791153437142    0.036132331971639  0.0000
  O1     O1        0.015554635484565    0.994113246986278    0.040427036201419  0.0000
  O1     O1        0.156623034611775    0.509750285071388    0.321716848925244  0.0000
  O3     O3        0.347082479692449    0.419781141938197    0.309962964935362  0.0000
  O1     O1        0.838381648190825    0.437395242169151    0.649568156595568  0.0000
  O1     O1        0.656153985475770    0.515606225511195    0.656240461989191  0.0000
  O3     O3        0.237981696754916    0.206839956591271    0.258142269852040  0.0000
  O1     O1        0.270914648172524    0.735557687707367    0.262262613803408  0.0000
  O1     O1        0.730216793774537    0.193510730061925    0.697298964754759  0.0000
  O1     O1        0.766196813356057    0.754411066512432    0.705298659674048  0.0000
  O1     O1        0.117642750894722    0.333201356786134    0.101719151157903  0.0000
  O1     O1        0.388585568202524    0.621974286839517    0.098783341715370  0.0000
  O3     O3        0.860261254306408    0.215178366688312    0.862245890380911  0.0000
  O3     O3        0.638398741889322    0.736551112387555    0.866036112565536  0.0000
  O1     O1        0.886552942431360    0.629530665585215    0.860156345512662  0.0000
  O3     O3        0.612213922829425    0.302844797975010    0.862060562986338  0.0000
  O1     O1        0.139896181734145    0.727507933219784    0.105136566965807  0.0000
  O3     O3        0.354482513059865    0.236739642390088    0.102786699869912  0.0000
  O2     O2        0.647848405982294    0.502749974795974    0.052016748370736  0.0000
  O3     O3        0.854428496145579    0.411767019666757    0.066108231478955  0.0000
  O1     O1        0.339264778774145    0.438900321139875    0.882146326163441  0.0000
  O1     O1        0.155581295788816    0.524006107086613    0.884906332130536  0.0000
  O2     O2        0.736547188612987    0.237267101979049    0.993159620486448  0.0000
  O3     O3        0.760550180846512    0.709785417237918    0.013534767388148  0.0000
  O1     O1        0.228620528057551    0.202354522082014    0.935427996940964  0.0000
  O1     O1        0.267632044818294    0.751846039349338    0.948788903159966  0.0000
