data_c00087.vasp
_audit_creation_method             Generated by GULP
_audit_author_name                 Salvador R. G. Balestra
_symmetry_space_group_name_H-M     'P 1             '
_symmetry_Int_Tables_number        1

loop_
_symmetry_equiv_pos_site_id
_symmetry_equiv_pos_as_xyz
_cell_length_a                       17.6610
_cell_length_b                        7.8191
_cell_length_c                       10.2332
_cell_angle_alpha                   89.6820
_cell_angle_beta                    90.7538
_cell_angle_gamma                   90.8822

loop_
_atom_site_label
_atom_site_type_symbol
_atom_site_fract_x
_atom_site_fract_y
_atom_site_fract_z
_atom_site_charge
  Ge     Ge        0.052090000000021    0.000000000000000    0.372269999999958  0.0000
  Ge     Ge        0.445976082264606    0.049461656745334    0.366173911702182  0.0000
  Ge     Ge        0.944437451848939    0.056894337115448    0.618035911679849  0.0000
  Ge     Ge        0.550310395364706    0.015555788501834    0.623334906262088  0.0000
  Ge     Ge        0.558037698049663    0.997956002588430    0.128254611656001  0.0000
  Ge     Ge        0.939663050618950    0.051160159249018    0.127353508834530  0.0000
  Ge     Ge        0.448316356490366    0.056607682399812    0.879322228135881  0.0000
  Ge     Ge        0.043997824673425    0.994589751402898    0.877344706553864  0.0000
  Ge     Ge        0.173956032685933    0.282435920749843    0.260519852401893  0.0000
  Ge     Ge        0.326947646726716    0.754518667203563    0.261196697835868  0.0000
  Ge     Ge        0.845130916439614    0.368918299268912    0.691402660281115  0.0000
  Ge     Ge        0.644809183426031    0.696193055987420    0.699459934917836  0.0000
  Ge     Ge        0.824560225534922    0.773447486990460    0.696212771904231  0.0000
  Ge     Ge        0.145431525927392    0.683362803969997    0.260462175971335  0.0000
  Ge     Ge        0.673131080442329    0.292768987243200    0.006695321313539  0.0000
  Ge     Ge        0.825147940805604    0.758457722451395    0.010636013956404  0.0000
  Ge     Ge        0.346498309976131    0.368355991717038    0.937679488236128  0.0000
  Ge     Ge        0.145851973158961    0.683756592954635    0.941080891019233  0.0000
  Ge     Ge        0.323894620736596    0.771930717019290    0.945369001459416  0.0000
  Ge     Ge        0.170224370705742    0.279233752282871    0.942129791716638  0.0000
  Si     Si        0.669811282269512    0.295877580625714    0.696968487340233  0.0000
  Si     Si        0.349861087013835    0.359805013763235    0.251215864532115  0.0000
  Si     Si        0.646626061132318    0.689867837130727    0.006891946887970  0.0000
  Si     Si        0.849798395511784    0.362637878992168    0.003737146832463  0.0000
  O1     O1        0.130586481707538    0.127898421270354    0.352181299382121  0.0000
  O1     O1        0.377101211302632    0.893999674481451    0.358505647015995  0.0000
  O1     O1        0.907755984902115    0.258052813294487    0.600155435000634  0.0000
  O1     O1        0.584173190044623    0.811715580696301    0.603380368702797  0.0000
  O1     O1        0.872304146603662    0.909786456249397    0.594612153871902  0.0000
  O3     O3        0.622573641991462    0.167509264784611    0.605466998941445  0.0000
  O1     O1        0.077392488840488    0.793582162766456    0.341634167126913  0.0000
  O3     O3        0.414799526869845    0.249805770379366    0.320182116195597  0.0000
  O1     O1        0.023848723785368    0.018345742605003    0.532629687521889  0.0000
  O1     O1        0.474046059337723    0.061188889192193    0.528523181053405  0.0000
  O1     O1        0.972569365521493    0.060912019792157    0.285971672424682  0.0000
  O1     O1        0.528014430991159    0.999485174360023    0.287184824470336  0.0000
  O1     O1        0.967908643922422    0.037610806317206    0.782315015288872  0.0000
  O1     O1        0.523578546776171    0.018915558519106    0.784837973937176  0.0000
  O1     O1        0.629377918021673    0.147028600248619    0.104246647257346  0.0000
  O1     O1        0.867379899925852    0.902160576079852    0.114266909347493  0.0000
  O1     O1        0.414560206866884    0.260940078983375    0.857431575381218  0.0000
  O1     O1        0.080399965694138    0.794375895638758    0.851805667129617  0.0000
  O1     O1        0.374679381720539    0.913500394848151    0.853121311552907  0.0000
  O1     O1        0.115843743144672    0.142462804315853    0.851666275526974  0.0000
  O3     O3        0.589884341874116    0.794210519533670    0.095476160812809  0.0000
  O3     O3        0.911752459481910    0.254873470577060    0.082048618822210  0.0000
  O1     O1        0.478330669217672    0.044362526242739    0.040080730884735  0.0000
  O1     O1        0.016555731714980    0.994773096581908    0.038626334680700  0.0000
  O1     O1        0.154729357414291    0.480067949611461    0.323048497714597  0.0000
  O3     O3        0.340781552992591    0.545300909099185    0.316027282016783  0.0000
  O1     O1        0.838078265143815    0.571175859507388    0.634135409809564  0.0000
  O3     O3        0.656792198488386    0.489864822369551    0.646599921942827  0.0000
  O3     O3        0.271144442456332    0.252918719285516    0.260513301784255  0.0000
  O1     O1        0.231437871141575    0.790270846598541    0.268990502312737  0.0000
  O3     O3        0.758767283779059    0.258895093379412    0.690572530904251  0.0000
  O1     O1        0.729386476237421    0.807404467145283    0.697365186436912  0.0000
  O1     O1        0.141565013580272    0.264542516427284    0.102242112478393  0.0000
  O1     O1        0.357127881192133    0.785898952083738    0.104324141207289  0.0000
  O3     O3        0.874189133217083    0.383035375545310    0.853703165938550  0.0000
  O3     O3        0.613823635591676    0.684733483018425    0.859474241576309  0.0000
  O1     O1        0.858251418727766    0.789014613638372    0.855458882783398  0.0000
  O3     O3        0.641941740216395    0.274593042518384    0.846312849459136  0.0000
  O1     O1        0.117994383162106    0.659186791564899    0.100643146607309  0.0000
  O3     O3        0.369910114646208    0.397134228973533    0.101560959550331  0.0000
  O3     O3        0.654744197667924    0.497732513274751    0.060721334245504  0.0000
  O3     O3        0.843245204303529    0.551129954828460    0.063671695282036  0.0000
  O1     O1        0.334888061645817    0.570198338341053    0.879432437936712  0.0000
  O1     O1        0.159510763376387    0.484600933950511    0.880971700710125  0.0000
  O3     O3        0.769638839447827    0.261553113148029    0.012207195057059  0.0000
  O3     O3        0.728263089527142    0.785239501903597    0.006705201884569  0.0000
  O1     O1        0.265379408989711    0.242722297558438    0.932399828257151  0.0000
  O1     O1        0.228419563674101    0.806140346673486    0.944904236274093  0.0000
