data_c00081.vasp
_audit_creation_method             Generated by GULP
_audit_author_name                 Salvador R. G. Balestra
_symmetry_space_group_name_H-M     'P 1             '
_symmetry_Int_Tables_number        1

loop_
_symmetry_equiv_pos_site_id
_symmetry_equiv_pos_as_xyz
_cell_length_a                       17.5178
_cell_length_b                        7.8581
_cell_length_c                       10.2704
_cell_angle_alpha                   90.6289
_cell_angle_beta                    89.7772
_cell_angle_gamma                   87.7769

loop_
_atom_site_label
_atom_site_type_symbol
_atom_site_fract_x
_atom_site_fract_y
_atom_site_fract_z
_atom_site_charge
  Ge     Ge        0.052090000000021    0.000000000000000    0.372269999999958  0.0000
  Ge     Ge        0.440541970731808    0.957476406238907    0.368220713141226  0.0000
  Ge     Ge        0.945608484506519    0.951176076821063    0.621646945548607  0.0000
  Ge     Ge        0.545682772648714    0.016320518311876    0.617603493362537  0.0000
  Ge     Ge        0.553327591826839    0.016517010873717    0.128453235631846  0.0000
  Ge     Ge        0.934561344816250    0.963393997281959    0.135869387597820  0.0000
  Ge     Ge        0.448648985843051    0.947881767739543    0.877441488727382  0.0000
  Ge     Ge        0.041683111622422    0.012350975297752    0.882818612680780  0.0000
  Ge     Ge        0.142770499108593    0.318854072236417    0.257979787989258  0.0000
  Ge     Ge        0.349611537587160    0.637545897736106    0.256694290600642  0.0000
  Ge     Ge        0.824204737665554    0.240270322971820    0.706097031215702  0.0000
  Ge     Ge        0.667486553010867    0.729347439370704    0.698061996387041  0.0000
  Ge     Ge        0.847431957724460    0.647813921920948    0.701407596277191  0.0000
  Ge     Ge        0.642297213321804    0.324658866366568    0.700136798701002  0.0000
  Ge     Ge        0.636909840834354    0.339559312576035    0.013405553807694  0.0000
  Ge     Ge        0.321876006049162    0.239077528365713    0.944126648906160  0.0000
  Ge     Ge        0.168759698045160    0.722432969561821    0.949877631375055  0.0000
  Ge     Ge        0.350121894334418    0.639322457785394    0.942259599433367  0.0000
  Ge     Ge        0.140788767233115    0.321804103029166    0.942765778587385  0.0000
  Ge     Ge        0.822917462452226    0.262584957835421    0.019466671933299  0.0000
  Si     Si        0.168000815489563    0.709012441032034    0.258230540749483  0.0000
  Si     Si        0.324078129796533    0.248312492640094    0.253797835784350  0.0000
  Si     Si        0.844625126803279    0.654251067079272    0.008489425386182  0.0000
  Si     Si        0.665220067588346    0.728610080549691    0.005618685480647  0.0000
  O1     O1        0.081892006912897    0.202925497151546    0.348658358570303  0.0000
  O1     O1        0.409572483232343    0.754315621493246    0.349774333359540  0.0000
  O1     O1        0.873121401954166    0.103660443142372    0.602437566804194  0.0000
  O1     O1        0.617485865488027    0.861838616190314    0.596456912676880  0.0000
  O1     O1        0.911435442066857    0.750228261143008    0.606344300286615  0.0000
  O1     O1        0.581928506471037    0.214333651704650    0.601433102084110  0.0000
  O3     O3        0.127599283127826    0.857762179889747    0.343795798334654  0.0000
  O3     O3        0.366327658615139    0.099023459270420    0.333100697037941  0.0000
  O1     O1        0.025609748968904    0.984256568205514    0.533658626421193  0.0000
  O1     O1        0.465834394513244    0.984317676750208    0.529034059581500  0.0000
  O1     O1        0.969230374682773    0.955042020539036    0.292271496732186  0.0000
  O1     O1        0.524327895763297    0.993408204439778    0.287012860305956  0.0000
  O1     O1        0.967795438514655    0.970169985052794    0.785435897287459  0.0000
  O1     O1        0.522655921129703    0.994244179084196    0.780753162319169  0.0000
  O1     O1        0.576717803359676    0.224976431519073    0.106793351459920  0.0000
  O3     O3        0.895404723802302    0.770039083051698    0.098377670639179  0.0000
  O1     O1        0.373138348583551    0.092853742388472    0.855186082830994  0.0000
  O1     O1        0.117565992284825    0.867203835643332    0.862283661894964  0.0000
  O1     O1        0.414472095471839    0.747826417799393    0.852394607229570  0.0000
  O1     O1        0.075597951984108    0.211975962277126    0.855597734569880  0.0000
  O3     O3        0.632970241432924    0.884430213097620    0.092640250198473  0.0000
  O1     O1        0.865367431840756    0.122664089813301    0.125004861869842  0.0000
  O1     O1        0.476570277104716    0.961890218946812    0.038010288083622  0.0000
  O1     O1        0.012703003921925    0.001921086496073    0.043101138234577  0.0000
  O3     O3        0.148496501539436    0.525910431640543    0.316686861775812  0.0000
  O3     O3        0.344123250647336    0.431658063082148    0.314383923777826  0.0000
  O1     O1        0.836484521821460    0.444518961930411    0.650136793206221  0.0000
  O1     O1        0.655744152385711    0.523370811789932    0.643039538755751  0.0000
  O3     O3        0.233715638072106    0.223794828898949    0.258663231865421  0.0000
  O3     O3        0.258499492519280    0.731204787387058    0.257380067699577  0.0000
  O1     O1        0.727981373257642    0.208649855184157    0.707878272318560  0.0000
  O1     O1        0.762795161793332    0.766774012443672    0.693273642044831  0.0000
  O1     O1        0.109856763543485    0.325567860974732    0.102514442368259  0.0000
  O1     O1        0.382774689767991    0.633126317001056    0.100510264628849  0.0000
  O1     O1        0.856968348415096    0.224419510163168    0.864343868900359  0.0000
  O3     O3        0.634148458411091    0.743614292512270    0.858674397356068  0.0000
  O3     O3        0.878062536308707    0.643312580261611    0.862829594276168  0.0000
  O1     O1        0.605355646400065    0.337738513847343    0.855875326658547  0.0000
  O3     O3        0.137359061438483    0.721071659158766    0.110913148340406  0.0000
  O3     O3        0.352851536371057    0.241714391333887    0.104984407055394  0.0000
  O3     O3        0.639788280051021    0.550612592830469    0.065608330459634  0.0000
  O3     O3        0.843845598371965    0.467802379725079    0.068872639451354  0.0000
  O1     O1        0.337499558707680    0.439700310536678    0.883367104664844  0.0000
  O1     O1        0.153182376037991    0.521227273558023    0.886832544865060  0.0000
  O1     O1        0.726297326542723    0.243793896426771    0.020778035168946  0.0000
  O2     O2        0.757384356474360    0.730279734031914    0.996888800832102  0.0000
  O1     O1        0.226618759522863    0.205358153262578    0.939261208258851  0.0000
  O1     O1        0.264220378119266    0.755627239220432    0.943801302776134  0.0000
