data_c00005.vasp
_audit_creation_method             Generated by GULP
_audit_author_name                 Salvador R. G. Balestra
_symmetry_space_group_name_H-M     'P 1             '
_symmetry_Int_Tables_number        1

loop_
_symmetry_equiv_pos_site_id
_symmetry_equiv_pos_as_xyz
_cell_length_a                       17.6873
_cell_length_b                        7.8083
_cell_length_c                       10.6771
_cell_angle_alpha                   90.1813
_cell_angle_beta                    90.3371
_cell_angle_gamma                   90.0052

loop_
_atom_site_label
_atom_site_type_symbol
_atom_site_fract_x
_atom_site_fract_y
_atom_site_fract_z
_atom_site_charge
  Ge     Ge        0.052090000000021    0.000000000000000    0.372269999999958  0.0000
  Ge     Ge        0.453916073227683    0.967686420700083    0.364896680491411  0.0000
  Ge     Ge        0.955023679073153    0.002830248076611    0.632536185507158  0.0000
  Ge     Ge        0.549828556439853    0.961758752838190    0.625134429193757  0.0000
  Ge     Ge        0.551948518716036    0.979599971444362    0.104233024736318  0.0000
  Ge     Ge        0.951312687991460    0.007596895060396    0.116079996424314  0.0000
  Ge     Ge        0.437961006549028    0.976229812185747    0.863746183215186  0.0000
  Ge     Ge        0.063383156308476    0.996157595552413    0.875779555145621  0.0000
  Ge     Ge        0.151496493096344    0.308759529048951    0.281966350363695  0.0000
  Ge     Ge        0.352575106695121    0.659124889073536    0.282352657655367  0.0000
  Ge     Ge        0.853688821573970    0.313284256847773    0.740076876987239  0.0000
  Ge     Ge        0.650998406645792    0.654538585424778    0.731798943361637  0.0000
  Ge     Ge        0.829779597402568    0.721789572467917    0.734672665099600  0.0000
  Ge     Ge        0.674356488722708    0.243940370768396    0.738202828978126  0.0000
  Ge     Ge        0.174394336511779    0.725984382852597    0.285682388820500  0.0000
  Ge     Ge        0.331164768338456    0.243388873707723    0.281446698095277  0.0000
  Ge     Ge        0.673266348508538    0.264802722861842    0.042141541739848  0.0000
  Ge     Ge        0.827038438619234    0.731587750916102    0.038841320695515  0.0000
  Ge     Ge        0.328882376865017    0.264560319556352    0.981171885310592  0.0000
  Ge     Ge        0.854018847970397    0.328197918201850    0.047665184035326  0.0000
  Si     Si        0.171574161159957    0.711835710610201    0.991876549118587  0.0000
  Si     Si        0.349473052895516    0.661297981952250    0.985653207287912  0.0000
  Si     Si        0.147753383321543    0.316585255076597    0.989281674338723  0.0000
  Si     Si        0.650233995965023    0.665053966134557    0.029864205407979  0.0000
  O1     O1        0.088662495112149    0.203643021925596    0.375382985168962  0.0000
  O1     O1        0.417822359631576    0.763644455091866    0.372839878077135  0.0000
  O1     O1        0.922195263477344    0.205796915396143    0.659293655617958  0.0000
  O1     O1        0.582510871579756    0.757214505522211    0.647766971297455  0.0000
  O1     O1        0.882519211455311    0.859753603136431    0.648286129971795  0.0000
  O1     O1        0.622328933350294    0.102459381151736    0.651901299023117  0.0000
  O1     O1        0.124586025920427    0.853227620599377    0.385097561526706  0.0000
  O1     O1        0.381637515079110    0.114859435250753    0.379731781930977  0.0000
  O1     O1        0.982882681870579    0.979907957810088    0.479483810103216  0.0000
  O1     O1        0.524617273697785    0.992952190985018    0.470827653223069  0.0000
  O1     O1        0.015732070387306    0.954204559803309    0.225765263835493  0.0000
  O1     O1        0.484661686712534    0.000349812451604    0.214237171167504  0.0000
  O1     O1        0.033643509653978    0.967906439426145    0.724567822119535  0.0000
  O1     O1        0.469578368176690    0.988340912410098    0.712701105404441  0.0000
  O1     O1        0.620987829056750    0.131437834945550    0.132512182530747  0.0000
  O1     O1        0.870744307984618    0.882231149498935    0.127046787435233  0.0000
  O1     O1        0.367189740845559    0.125504381370446    0.877269048988054  0.0000
  O3     O3        0.135086993360355    0.846965291440982    0.898694461432787  0.0000
  O3     O3        0.399746984150867    0.777129396586117    0.896859716957888  0.0000
  O3     O3        0.096909343985104    0.204499137164325    0.896428786374411  0.0000
  O3     O3        0.591448589008946    0.775723319276002    0.109255045106129  0.0000
  O1     O1        0.920034934737571    0.215027905464006    0.131176787902168  0.0000
  O1     O1        0.513719673020812    0.018415457253698    0.958472477280467  0.0000
  O1     O1        0.987154971993703    0.965222814707914    0.969097974653115  0.0000
  O1     O1        0.162331362694037    0.514870743489337    0.328858823218896  0.0000
  O1     O1        0.342073687445749    0.453779685415557    0.329517534684328  0.0000
  O1     O1        0.841417571112969    0.514605622604007    0.681256703766475  0.0000
  O1     O1        0.662116839581224    0.449059069768153    0.680997436886202  0.0000
  O1     O1        0.236106920598652    0.200270817057218    0.286470037805353  0.0000
  O1     O1        0.268778570160020    0.770315080436124    0.294244411458840  0.0000
  O1     O1        0.769567259760068    0.201132684405052    0.733003286501552  0.0000
  O1     O1        0.734749482295225    0.765600116087331    0.722745357273345  0.0000
  O3     O3        0.115678282333866    0.296820366893840    0.129131843117811  0.0000
  O3     O3        0.381688285856489    0.666666530979826    0.126480974211444  0.0000
  O1     O1        0.881953035759993    0.328033289002834    0.893589497477698  0.0000
  O3     O3        0.621592373093820    0.650455074038059    0.886862378316064  0.0000
  O1     O1        0.859463115993670    0.734909703778358    0.887302648048205  0.0000
  O1     O1        0.644031395977122    0.236111715244465    0.889838569418210  0.0000
  O3     O3        0.143054185285456    0.748925850864316    0.131422958368232  0.0000
  O1     O1        0.362580737153054    0.225858865754827    0.129050925613013  0.0000
  O3     O3        0.660292586634445    0.477612939281012    0.087541877359175  0.0000
  O1     O1        0.845688192569931    0.532525667299800    0.101873349714996  0.0000
  O3     O3        0.351557783125470    0.469766175903896    0.933046407645072  0.0000
  O2     O2        0.147834851347209    0.517824654893886    0.951406267098717  0.0000
  O1     O1        0.767862926932148    0.224621790389054    0.053492212466944  0.0000
  O3     O3        0.730418188142480    0.763984611420837    0.029968882309368  0.0000
  O3     O3        0.232290144982718    0.243436445522598    0.988579024757108  0.0000
  O2     O2        0.262529419819445    0.727776563506783    0.991936426704629  0.0000
