data_c00049.vasp
_audit_creation_method             Generated by GULP
_audit_author_name                 Salvador R. G. Balestra
_symmetry_space_group_name_H-M     'P 1             '
_symmetry_Int_Tables_number        1

loop_
_symmetry_equiv_pos_site_id
_symmetry_equiv_pos_as_xyz
_cell_length_a                       17.6179
_cell_length_b                        7.7960
_cell_length_c                       10.4408
_cell_angle_alpha                   88.1777
_cell_angle_beta                    90.7116
_cell_angle_gamma                   89.3669

loop_
_atom_site_label
_atom_site_type_symbol
_atom_site_fract_x
_atom_site_fract_y
_atom_site_fract_z
_atom_site_charge
  Ge     Ge        0.052090000000021    0.000000000000000    0.372269999999958  0.0000
  Ge     Ge        0.447274672185481    0.044309914791645    0.360730444180418  0.0000
  Ge     Ge        0.949827247826376    0.045506884412846    0.622345241110315  0.0000
  Ge     Ge        0.540682682342746    0.102604874815810    0.621690774099018  0.0000
  Ge     Ge        0.562317958335909    0.074194843839979    0.135802677428929  0.0000
  Ge     Ge        0.942576165940072    0.039202625282438    0.121158368137199  0.0000
  Ge     Ge        0.446204318939742    0.081098369638210    0.895540796780782  0.0000
  Ge     Ge        0.053674281407984    0.059454741552398    0.884905029446084  0.0000
  Ge     Ge        0.174476298133774    0.279218496834339    0.247593381317884  0.0000
  Ge     Ge        0.334376862383497    0.741924152752482    0.279360321699692  0.0000
  Ge     Ge        0.826062466703198    0.325139006726271    0.700587536155830  0.0000
  Ge     Ge        0.667178033922701    0.817713484168786    0.697454944313388  0.0000
  Ge     Ge        0.844983891957161    0.734960304082574    0.689348807741239  0.0000
  Ge     Ge        0.645998908926964    0.402937511579109    0.705433988877789  0.0000
  Ge     Ge        0.150027488972675    0.692092035905384    0.275575366872931  0.0000
  Ge     Ge        0.644648897659604    0.403159837704763    0.015453220112017  0.0000
  Ge     Ge        0.327814003807749    0.794041101639839    0.966256943033968  0.0000
  Ge     Ge        0.175767099163986    0.335247944204182    0.941877304169207  0.0000
  Ge     Ge        0.677690321094542    0.809163628389247    0.008788316537495  0.0000
  Ge     Ge        0.828209814149538    0.333056439189729    0.009635141510859  0.0000
  Si     Si        0.344941434214138    0.354246461495488    0.246822159374053  0.0000
  Si     Si        0.855060780563649    0.729602504319142    0.995445630822916  0.0000
  Si     Si        0.345279064062710    0.408422676669227    0.944573394599128  0.0000
  Si     Si        0.148330190657952    0.737173780721720    0.973932619892569  0.0000
  O1     O1        0.129206344094613    0.121404021742028    0.330798096167403  0.0000
  O1     O1        0.388740974628007    0.872217434063012    0.371911011472421  0.0000
  O1     O1        0.877511655465194    0.196030706818534    0.603873570455830  0.0000
  O1     O1        0.609887009730549    0.947161303879881    0.601881184712257  0.0000
  O1     O1        0.911483536324256    0.845397302843704    0.603992802892417  0.0000
  O1     O1        0.581631137538239    0.300092657554683    0.611273391563839  0.0000
  O1     O1        0.085611471008254    0.791320783365219    0.370086822867237  0.0000
  O3     O3        0.410261828945865    0.213456244886225    0.264263882957032  0.0000
  O1     O1        0.024528386138426    0.063525452169477    0.521006679158239  0.0000
  O1     O1        0.466304794999518    0.096875650210574    0.515507644997851  0.0000
  O1     O1        0.972237027960280    0.023893305010496    0.277846102020772  0.0000
  O1     O1        0.533143744051899    0.017905682186621    0.287448960199607  0.0000
  O1     O1        0.980981805840223    0.069062030784060    0.776928275418339  0.0000
  O1     O1        0.507216934848722    0.063411262488327    0.773642439267775  0.0000
  O1     O1        0.582873291178392    0.287638061575991    0.109585823010929  0.0000
  O3     O3        0.918212631957824    0.837867494085041    0.067605753914719  0.0000
  O3     O3        0.415333345245609    0.292951437208361    0.907077754209059  0.0000
  O3     O3        0.091101976020717    0.851858822845297    0.887605179004852  0.0000
  O1     O1        0.366872592981131    0.957332594696342    0.879017954453314  0.0000
  O1     O1        0.121603219443760    0.209920962353785    0.846519077995761  0.0000
  O1     O1        0.644254161282273    0.961035522498285    0.106908650744580  0.0000
  O1     O1        0.870051628572325    0.186587855995467    0.113747205181974  0.0000
  O1     O1        0.491529687119691    0.010137138013988    0.033282617989794  0.0000
  O1     O1        0.016968440613160    0.111106472249402    0.031013346227892  0.0000
  O1     O1        0.133570929283287    0.476400290407582    0.273297503609236  0.0000
  O3     O3        0.370822044958532    0.534129505722351    0.301768666506857  0.0000
  O1     O1        0.833532916049504    0.532602811374760    0.637686064523833  0.0000
  O1     O1        0.658411661722123    0.608165011247733    0.650738159680869  0.0000
  O3     O3        0.267750264672983    0.284483939779620    0.307855177425158  0.0000
  O1     O1        0.241687747650819    0.732201774652759    0.324666553849914  0.0000
  O1     O1        0.730047414917875    0.286436879942853    0.704292323385626  0.0000
  O1     O1        0.762620181052124    0.856895183428560    0.683386424674190  0.0000
  O1     O1        0.175037419087146    0.230059069940936    0.089206181413355  0.0000
  O1     O1        0.343003747240703    0.825593040005497    0.126314748907628  0.0000
  O1     O1        0.859356265286815    0.305145840699904    0.856530179843304  0.0000
  O1     O1        0.642088321291145    0.835920967831967    0.855340029729028  0.0000
  O3     O3        0.875929497508375    0.710409112916095    0.847851729491389  0.0000
  O1     O1        0.612095403895311    0.404263568706790    0.859500034614337  0.0000
  O3     O3        0.138267616546501    0.783133346640140    0.122179191423288  0.0000
  O2     O2        0.322197850890177    0.399949725891202    0.096844945670617  0.0000
  O1     O1        0.652908555958335    0.608303542268687    0.066889136544503  0.0000
  O3     O3        0.847438806606983    0.540218588101559    0.058633713561740  0.0000
  O3     O3        0.368109895298399    0.603128341391238    0.915650567070420  0.0000
  O3     O3        0.134457048112239    0.536196886468502    0.957010689463471  0.0000
  O1     O1        0.732364614881245    0.305040737830565    0.014431913748563  0.0000
  O3     O3        0.774982108085959    0.830628110249455    0.002490267334416  0.0000
  O3     O3        0.266268943383284    0.354946852403158    0.878261681164267  0.0000
  O3     O3        0.232949542903224    0.783661263902705    0.930395227379194  0.0000
