data_c00117.vasp
_audit_creation_method             Generated by GULP
_audit_author_name                 Salvador R. G. Balestra
_symmetry_space_group_name_H-M     'P 1             '
_symmetry_Int_Tables_number        1

loop_
_symmetry_equiv_pos_site_id
_symmetry_equiv_pos_as_xyz
_cell_length_a                       17.6573
_cell_length_b                        7.8383
_cell_length_c                       10.2606
_cell_angle_alpha                   91.8284
_cell_angle_beta                    90.4837
_cell_angle_gamma                   91.4496

loop_
_atom_site_label
_atom_site_type_symbol
_atom_site_fract_x
_atom_site_fract_y
_atom_site_fract_z
_atom_site_charge
  Ge     Ge        0.052090000000021    0.000000000000000    0.372269999999958  0.0000
  Ge     Ge        0.447554529260304    0.059960687010652    0.344391639667199  0.0000
  Ge     Ge        0.945680805312482    0.033412123975088    0.623000075824154  0.0000
  Ge     Ge        0.551046819259481    0.997036348733639    0.596868891282392  0.0000
  Ge     Ge        0.550154650185454    0.997991135672968    0.088851910598583  0.0000
  Ge     Ge        0.942502535683580    0.045509380351972    0.128112415468762  0.0000
  Ge     Ge        0.441365329980026    0.038283426147032    0.839970545215945  0.0000
  Ge     Ge        0.048249392840348    0.974024559642313    0.880176435745324  0.0000
  Ge     Ge        0.168788201417337    0.296199212550042    0.268800310194081  0.0000
  Ge     Ge        0.325126643042492    0.771433638723446    0.264548797834106  0.0000
  Ge     Ge        0.848039046471172    0.349891489093265    0.696173690598689  0.0000
  Ge     Ge        0.641524027562495    0.679800026700670    0.708364886427101  0.0000
  Ge     Ge        0.822818709145894    0.750798808120693    0.698672879076110  0.0000
  Ge     Ge        0.348748442663791    0.369641771386106    0.276150649462574  0.0000
  Ge     Ge        0.673321872090606    0.286058444233746    0.018981527283719  0.0000
  Ge     Ge        0.147045008506552    0.663485787847469    0.941720831353670  0.0000
  Ge     Ge        0.326218915103976    0.743773782649186    0.949058587279819  0.0000
  Ge     Ge        0.171315424301048    0.263793754199087    0.953776298275634  0.0000
  Ge     Ge        0.649136568331154    0.685210639636229    0.022788702558076  0.0000
  Ge     Ge        0.853802040530525    0.359525217868324    0.010738945078490  0.0000
  Si     Si        0.669159367386421    0.284899622646250    0.709707560258034  0.0000
  Si     Si        0.148558892847599    0.691990828604540    0.253482617160420  0.0000
  Si     Si        0.826812736575955    0.756670440556635    0.007710636500023  0.0000
  Si     Si        0.347905332563747    0.345738378115116    0.965038278967850  0.0000
  O1     O1        0.117497350100790    0.164178729188045    0.365963683125203  0.0000
  O1     O1        0.371402562956023    0.920429137635349    0.362070058177683  0.0000
  O1     O1        0.907292220827081    0.229884241974324    0.601550940550295  0.0000
  O1     O1        0.576828684833042    0.790660818726678    0.620930769814319  0.0000
  O1     O1        0.871755249039937    0.887471646337781    0.603353289665207  0.0000
  O3     O3        0.626813217130616    0.136522867007238    0.625294210387875  0.0000
  O3     O3        0.087193768344917    0.802711931264034    0.329264269067822  0.0000
  O1     O1        0.414683075414115    0.263535168457255    0.363585847666196  0.0000
  O1     O1        0.023362418227860    0.991718341200277    0.532516650192624  0.0000
  O1     O1        0.524697681686440    0.016456580752463    0.435704159538660  0.0000
  O1     O1        0.970018362151228    0.037109744334646    0.288542693625356  0.0000
  O1     O1        0.474171599210923    0.036466564063556    0.182846437207088  0.0000
  O1     O1        0.973957893730605    0.020883643232246    0.784602936112694  0.0000
  O1     O1        0.471023322944253    0.049130003197704    0.681267457509048  0.0000
  O1     O1        0.622675676862779    0.147968268134403    0.109623159071062  0.0000
  O3     O3        0.867761966129487    0.903183977070134    0.095992893061996  0.0000
  O3     O3        0.408553710158672    0.237459788124351    0.885958507487500  0.0000
  O1     O1        0.080047362556553    0.769171488604309    0.857423864569157  0.0000
  O1     O1        0.374446985724473    0.876433073560788    0.848677658651429  0.0000
  O1     O1        0.125703653544920    0.110568624672814    0.860494059358585  0.0000
  O1     O1        0.590554727923057    0.804709978570722    0.117594304035656  0.0000
  O1     O1        0.917347473717769    0.252485314711648    0.101593674666959  0.0000
  O1     O1        0.520587903303557    0.995341332061168    0.928314407993884  0.0000
  O1     O1        0.020778464869795    0.993654386425278    0.040573578644614  0.0000
  O3     O3        0.158779888173155    0.509596220743812    0.317906630228883  0.0000
  O1     O1        0.342470305368079    0.576165084377623    0.329811813655908  0.0000
  O1     O1        0.840239770930659    0.548128809104667    0.637353720955354  0.0000
  O3     O3        0.651865895725631    0.469775744989656    0.652500391510054  0.0000
  O1     O1        0.263669557768720    0.259009989491611    0.283429029813193  0.0000
  O3     O3        0.228112825939744    0.798964883836355    0.257785921531912  0.0000
  O3     O3        0.758590622659927    0.253554957337631    0.707615127677903  0.0000
  O1     O1        0.727885148358501    0.784339309933409    0.694540697694504  0.0000
  O1     O1        0.138473166670242    0.257695859999602    0.111421187896500  0.0000
  O1     O1        0.357237489418809    0.781819463042885    0.106607053984421  0.0000
  O1     O1        0.883894627734806    0.357448713001077    0.852799685775954  0.0000
  O1     O1        0.612671643210320    0.675887159095567    0.866298533140931  0.0000
  O3     O3        0.856071808747627    0.763232060260257    0.859429324604804  0.0000
  O3     O3        0.640752698280144    0.280319303268586    0.858334380546029  0.0000
  O3     O3        0.122786655152334    0.653410890864408    0.105350287586782  0.0000
  O3     O3        0.375241519189362    0.376953659304451    0.113480970643573  0.0000
  O1     O1        0.657823893237424    0.488314096356578    0.083314759921088  0.0000
  O3     O3        0.843582523781543    0.570397084067385    0.063132844716459  0.0000
  O3     O3        0.337509209561921    0.529508392830205    0.903422891925015  0.0000
  O1     O1        0.153596929970059    0.457798956658574    0.886174020780158  0.0000
  O1     O1        0.768110560626107    0.251854609495727    0.023064119827519  0.0000
  O3     O3        0.737380585898001    0.785969320593146    0.007557605416436  0.0000
  O3     O3        0.268390406845797    0.238851776223370    0.961869729932133  0.0000
  O1     O1        0.231243322627321    0.777468108595857    0.934898047492690  0.0000
