data_c00197.vasp
_audit_creation_method             Generated by GULP
_audit_author_name                 Salvador R. G. Balestra
_symmetry_space_group_name_H-M     'P 1             '
_symmetry_Int_Tables_number        1

loop_
_symmetry_equiv_pos_site_id
_symmetry_equiv_pos_as_xyz
_cell_length_a                       17.8097
_cell_length_b                        7.7748
_cell_length_c                       10.5124
_cell_angle_alpha                   91.1992
_cell_angle_beta                    90.2868
_cell_angle_gamma                   89.5363

loop_
_atom_site_label
_atom_site_type_symbol
_atom_site_fract_x
_atom_site_fract_y
_atom_site_fract_z
_atom_site_charge
  Ge     Ge        0.052090000000021    0.000000000000000    0.372269999999958  0.0000
  Ge     Ge        0.448298073205739    0.030073826846920    0.348337898913114  0.0000
  Ge     Ge        0.944427664662539    0.983414130657254    0.621214513507374  0.0000
  Ge     Ge        0.552163891157138    0.019650915890288    0.601757507980801  0.0000
  Ge     Ge        0.545969116897085    0.025202199883196    0.087842203171379  0.0000
  Ge     Ge        0.943191246162349    0.995529376336173    0.126235834292054  0.0000
  Ge     Ge        0.439213318659317    0.013378559925953    0.841577842232809  0.0000
  Ge     Ge        0.047303696481805    0.990859203867329    0.878938197984686  0.0000
  Ge     Ge        0.169499357864033    0.285610565866311    0.265937885163699  0.0000
  Ge     Ge        0.326673820548292    0.754471375505009    0.261860443218088  0.0000
  Ge     Ge        0.823410713630299    0.267550425594007    0.700414257084712  0.0000
  Ge     Ge        0.842007005704542    0.673775736490765    0.695900919673641  0.0000
  Ge     Ge        0.347806478969116    0.342183262302461    0.269935926365842  0.0000
  Ge     Ge        0.643278883738390    0.338602237525220    0.009135510474233  0.0000
  Ge     Ge        0.849108797772110    0.679986579607129    0.008508388310247  0.0000
  Ge     Ge        0.146205749285736    0.672829768841544    0.953690809552499  0.0000
  Ge     Ge        0.324575137229945    0.732785100802768    0.954424068010980  0.0000
  Ge     Ge        0.170345394888813    0.263342904101257    0.957778212700990  0.0000
  Ge     Ge        0.671169021179075    0.751153516957132    0.012644176913142  0.0000
  Ge     Ge        0.821945456905913    0.268330048572028    0.009057754337137  0.0000
  Si     Si        0.666338553122191    0.731930796045808    0.710304703731068  0.0000
  Si     Si        0.646752683689319    0.330182391878753    0.710237692293493  0.0000
  Si     Si        0.151408436437889    0.691958927370357    0.256592338809440  0.0000
  Si     Si        0.345657254449722    0.324457387127203    0.966373900234178  0.0000
  O1     O1        0.115068155584547    0.164254288950493    0.362226224304552  0.0000
  O1     O1        0.373273027399618    0.892251461088254    0.361864852751528  0.0000
  O1     O1        0.871206534599030    0.127547133757143    0.603152675111721  0.0000
  O3     O3        0.615328837267515    0.852827195309229    0.623655406066422  0.0000
  O1     O1        0.903825301639984    0.784904530961863    0.605564474809581  0.0000
  O3     O3        0.592087086100939    0.221515993122209    0.618872191962715  0.0000
  O3     O3        0.092774392776185    0.801458234239346    0.340094263325602  0.0000
  O1     O1        0.413122357336885    0.236025467827825    0.359349578767979  0.0000
  O1     O1        0.020676986363848    0.003524339948112    0.526722299287619  0.0000
  O1     O1        0.522888393214361    0.998584668730171    0.446091141046233  0.0000
  O1     O1        0.973218958776920    0.022969043800828    0.280439239770700  0.0000
  O1     O1        0.477939238719847    0.989412750531896    0.194516484183417  0.0000
  O1     O1        0.976408326162973    0.021807205472644    0.774598968985927  0.0000
  O1     O1        0.471194216095879    0.010321600288553    0.687865129324159  0.0000
  O1     O1        0.577992275793850    0.233593137752035    0.096217041735906  0.0000
  O1     O1        0.917092528886862    0.786360464829137    0.092811558400559  0.0000
  O3     O3        0.404338180003018    0.216323121809489    0.882314287600289  0.0000
  O1     O1        0.079016945532117    0.781139292374566    0.870624857568984  0.0000
  O1     O1        0.372152469161197    0.856686155329061    0.850815018846355  0.0000
  O1     O1        0.124945435043448    0.120446562302850    0.861035354623875  0.0000
  O1     O1        0.622850253190880    0.890939210789088    0.107187851485884  0.0000
  O1     O1        0.866689393037000    0.127317431532600    0.105448295697165  0.0000
  O1     O1        0.513655481950672    0.970304366175429    0.937990180804966  0.0000
  O1     O1        0.015480144782677    0.047711237030045    0.028544441056424  0.0000
  O3     O3        0.162534367900152    0.502466433778199    0.310671001039186  0.0000
  O1     O1        0.342348303968937    0.551186381644962    0.318556696145489  0.0000
  O1     O1        0.838773156472050    0.467769635178383    0.640148800417381  0.0000
  O2     O2        0.656267871242169    0.529260214925590    0.669950321020979  0.0000
  O1     O1        0.263180519617010    0.237855438653455    0.280741827125720  0.0000
  O3     O3        0.230507965955768    0.791985267933794    0.257807202178131  0.0000
  O3     O3        0.727406655624214    0.236220313970518    0.705960558078603  0.0000
  O3     O3        0.753879777524558    0.773425120889572    0.694307944152280  0.0000
  O1     O1        0.139778727637048    0.252842600246396    0.112679307940299  0.0000
  O1     O1        0.356493137070084    0.769178847882964    0.106793942058469  0.0000
  O1     O1        0.854164267880915    0.251846799374613    0.855075045350958  0.0000
  O3     O3        0.641668180306858    0.761763916341970    0.854894920326540  0.0000
  O1     O1        0.873831759881437    0.675508582864717    0.850513536587114  0.0000
  O3     O3        0.612986612800842    0.327005041073421    0.851125006880360  0.0000
  O3     O3        0.120319508790697    0.676814867727324    0.113189995270346  0.0000
  O3     O3        0.375264800686768    0.334387568332444    0.111047501548256  0.0000
  O1     O1        0.654113119270640    0.544405968040884    0.061926688525755  0.0000
  O1     O1        0.838081520954707    0.476477618378230    0.062427368991472  0.0000
  O3     O3        0.334644466727491    0.515121231141421    0.914385103220266  0.0000
  O1     O1        0.152322293704084    0.465538600217253    0.900341130387511  0.0000
  O1     O1        0.727577932657866    0.230023197267989    0.013849515262899  0.0000
  O1     O1        0.765065573462641    0.790476821151677    0.020981046261875  0.0000
  O3     O3        0.266201189164805    0.225977747106435    0.962546580001265  0.0000
  O1     O1        0.230492039195894    0.777049626920905    0.943536956588634  0.0000
