data_c00151.vasp
_audit_creation_method             Generated by GULP
_audit_author_name                 Salvador R. G. Balestra
_symmetry_space_group_name_H-M     'P 1             '
_symmetry_Int_Tables_number        1

loop_
_symmetry_equiv_pos_site_id
_symmetry_equiv_pos_as_xyz
_cell_length_a                       17.3203
_cell_length_b                        7.8543
_cell_length_c                       10.2760
_cell_angle_alpha                   89.9989
_cell_angle_beta                    90.9323
_cell_angle_gamma                   85.8679

loop_
_atom_site_label
_atom_site_type_symbol
_atom_site_fract_x
_atom_site_fract_y
_atom_site_fract_z
_atom_site_charge
  Ge     Ge        0.052090000000021    0.000000000000000    0.372269999999958  0.0000
  Ge     Ge        0.466235612540454    0.933261369758565    0.343125742369842  0.0000
  Ge     Ge        0.949593812517752    0.951732778431599    0.633474234076487  0.0000
  Ge     Ge        0.547712957079381    0.012300576121823    0.612007061945779  0.0000
  Ge     Ge        0.534471277638016    0.051035436970251    0.063209216790041  0.0000
  Ge     Ge        0.935293915535499    0.001486616813405    0.121148655926390  0.0000
  Ge     Ge        0.415391586829609    0.981748953116885    0.822123047262868  0.0000
  Ge     Ge        0.049928609241284    0.038159259629199    0.886029744879794  0.0000
  Ge     Ge        0.149788853953756    0.304751233550655    0.294864230432885  0.0000
  Ge     Ge        0.353695039829731    0.648510100212186    0.285404988718701  0.0000
  Ge     Ge        0.820045724923330    0.254769407776273    0.746024751675423  0.0000
  Ge     Ge        0.843919185518329    0.663935915799711    0.727190883642819  0.0000
  Ge     Ge        0.636160035634562    0.332524614595482    0.716689611773595  0.0000
  Ge     Ge        0.337137235563320    0.228473492631113    0.266976348358012  0.0000
  Ge     Ge        0.627995292894868    0.371273977247625    0.038050406261683  0.0000
  Ge     Ge        0.834315241111179    0.699411023316381    0.034546784627951  0.0000
  Ge     Ge        0.326897907904127    0.269536390013134    0.963673507647784  0.0000
  Ge     Ge        0.341457946772736    0.667699867737424    0.967341590525688  0.0000
  Ge     Ge        0.134137818019469    0.357111980893242    0.991386166243656  0.0000
  Ge     Ge        0.812135020939609    0.297558470374899    0.057299114478658  0.0000
  Si     Si        0.668143721647404    0.706632427194189    0.712409509901029  0.0000
  Si     Si        0.177926649797808    0.693395639693942    0.313593220049165  0.0000
  Si     Si        0.162448608458484    0.727628191290957    0.000086898135079  0.0000
  Si     Si        0.658729142701629    0.741247375890836    0.012066851712288  0.0000
  O1     O1        0.096267619088415    0.186206290971357    0.395134331280112  0.0000
  O1     O1        0.426114297021648    0.742016504762798    0.366892165883588  0.0000
  O1     O1        0.877035057378952    0.104745821399393    0.666236998891054  0.0000
  O3     O3        0.618867604348778    0.883952453393427    0.693039581009424  0.0000
  O1     O1        0.913418133913888    0.754647452391684    0.638687973545567  0.0000
  O1     O1        0.571499133115539    0.218018307870634    0.631028854887669  0.0000
  O3     O3        0.121756772451105    0.829856466652443    0.384309039456216  0.0000
  O1     O1        0.394147446925171    0.093399519405997    0.364001806944564  0.0000
  O1     O1        0.978368427484617    0.980861081920809    0.475945207265897  0.0000
  O1     O1        0.540921555129273    0.957717740068676    0.452198847544653  0.0000
  O1     O1        0.016337254507775    0.995858673296231    0.215974690200873  0.0000
  O1     O1        0.503642419714680    0.937491712856462    0.189981392394423  0.0000
  O1     O1        0.030687178077596    0.970559901659503    0.731570088417708  0.0000
  O1     O1        0.457235677151306    0.981431188271750    0.673960497613704  0.0000
  O1     O1        0.565432656394392    0.244396656780091    0.113852995859118  0.0000
  O1     O1        0.896036601875048    0.807924019299713    0.129531712099007  0.0000
  O1     O1        0.334117024610941    0.123336650253560    0.840794380575005  0.0000
  O3     O3        0.116686605524420    0.906759796280427    0.973919750349040  0.0000
  O1     O1        0.397904272974070    0.780451381821444    0.866390632463508  0.0000
  O1     O1        0.090922687208856    0.232449884891838    0.880382322870554  0.0000
  O3     O3        0.613518817267093    0.921760155333352    0.003210405847804  0.0000
  O1     O1        0.865077448756146    0.159233436301839    0.158485985780745  0.0000
  O1     O1        0.474028602815085    0.083381020840542    0.932111533901230  0.0000
  O1     O1        0.964141580965637    0.052353948169543    0.965019294484928  0.0000
  O3     O3        0.155891118336873    0.506673071982588    0.358053369686865  0.0000
  O1     O1        0.361173291988012    0.433238927274694    0.298968401354595  0.0000
  O1     O1        0.862069516296264    0.447888547869152    0.737809750024241  0.0000
  O3     O3        0.621538121881478    0.547289043375758    0.667584310408615  0.0000
  O1     O1        0.241325137527165    0.203206632860846    0.288812719538996  0.0000
  O3     O3        0.265714508345936    0.722951081578941    0.351786512616170  0.0000
  O1     O1        0.729434480343036    0.271971801306137    0.674539410015386  0.0000
  O3     O3        0.752771162873217    0.708867235231720    0.652242877215373  0.0000
  O1     O1        0.103883993855026    0.308889338794492    0.144485093719837  0.0000
  O1     O1        0.360177446777346    0.715997810372894    0.126099981197348  0.0000
  O1     O1        0.807017772409417    0.204539748534385    0.905742563965171  0.0000
  O2     O2        0.688223055005539    0.667115824040814    0.868176214724127  0.0000
  O1     O1        0.849465315475892    0.760849588024513    0.876969387172182  0.0000
  O1     O1        0.620166293801768    0.304653139826025    0.878872012160748  0.0000
  O2     O2        0.176647919499169    0.690531809482449    0.154798692060285  0.0000
  O1     O1        0.364072307557578    0.182554823611456    0.108729142105874  0.0000
  O3     O3        0.606875409312042    0.590493779434511    0.060363878500766  0.0000
  O1     O1        0.857107759707315    0.485107749374303    0.050108253586258  0.0000
  O1     O1        0.367066403253572    0.459039808038866    0.930995473346089  0.0000
  O3     O3        0.113985394767385    0.572337904992554    0.949563255928032  0.0000
  O1     O1        0.718802127299846    0.336482723305535    0.106493372690969  0.0000
  O3     O3        0.739932936900122    0.749864340532677    0.088026859968086  0.0000
  O1     O1        0.233410349385704    0.337553746663719    0.003213930021575  0.0000
  O3     O3        0.244874706838178    0.728630913552652    0.931290045145902  0.0000
