data_c00124.vasp
_audit_creation_method             Generated by GULP
_audit_author_name                 Salvador R. G. Balestra
_symmetry_space_group_name_H-M     'P 1             '
_symmetry_Int_Tables_number        1

loop_
_symmetry_equiv_pos_site_id
_symmetry_equiv_pos_as_xyz
_cell_length_a                       17.7250
_cell_length_b                        7.7932
_cell_length_c                       10.4821
_cell_angle_alpha                   91.1160
_cell_angle_beta                    90.3072
_cell_angle_gamma                   90.2125

loop_
_atom_site_label
_atom_site_type_symbol
_atom_site_fract_x
_atom_site_fract_y
_atom_site_fract_z
_atom_site_charge
  Ge     Ge        0.052090000000021    0.000000000000000    0.372269999999958  0.0000
  Ge     Ge        0.441406917299382    0.033369212939323    0.371928893861681  0.0000
  Ge     Ge        0.945889940696944    0.979339034690553    0.624045857127363  0.0000
  Ge     Ge        0.545272761401412    0.022995268575259    0.630599476258131  0.0000
  Ge     Ge        0.545156555365371    0.018704881433244    0.118396533227866  0.0000
  Ge     Ge        0.947823129491976    0.005820336295105    0.118932981852554  0.0000
  Ge     Ge        0.436309828338123    0.011050503781280    0.876889114152289  0.0000
  Ge     Ge        0.054014110512642    0.979546661009764    0.872742599198276  0.0000
  Ge     Ge        0.170881737810206    0.282698761618643    0.304517753936170  0.0000
  Ge     Ge        0.322968790977598    0.745887877967734    0.294745743496812  0.0000
  Ge     Ge        0.823024051432701    0.264124533294366    0.738847388665706  0.0000
  Ge     Ge        0.665253462631497    0.732581698131963    0.736543456476287  0.0000
  Ge     Ge        0.845042314454443    0.672280198710836    0.728944054249839  0.0000
  Ge     Ge        0.642664738725588    0.339596298543523    0.045943844706498  0.0000
  Ge     Ge        0.849997597781976    0.682418840907669    0.042963760771069  0.0000
  Ge     Ge        0.141209457941462    0.659729854726665    0.987753334075399  0.0000
  Ge     Ge        0.321700451922153    0.723870906040734    0.984991104692354  0.0000
  Ge     Ge        0.171954817403065    0.254489824888726    0.997113242550002  0.0000
  Ge     Ge        0.670768533116487    0.749473194387990    0.047256079038365  0.0000
  Ge     Ge        0.821366890111318    0.274461991991882    0.049574469099974  0.0000
  Si     Si        0.647179271877570    0.327160201067201    0.741848075638916  0.0000
  Si     Si        0.146128488499093    0.682786379255481    0.291044899065847  0.0000
  Si     Si        0.345490194574343    0.348975417106105    0.302362436859556  0.0000
  Si     Si        0.346705612547069    0.328123952978918    0.001822174918086  0.0000
  O1     O1        0.122385048389148    0.149135421754675    0.402561210700642  0.0000
  O1     O1        0.367728920297896    0.891814934100869    0.392132564069665  0.0000
  O1     O1        0.871128758497937    0.114515918401490    0.651931124648261  0.0000
  O1     O1        0.607535488951594    0.856539117726546    0.645617274716010  0.0000
  O1     O1        0.911983064186793    0.775278136904392    0.641495157299426  0.0000
  O3     O3        0.587922167624558    0.219823507541748    0.657313772536906  0.0000
  O3     O3        0.088420606916060    0.793783218126290    0.375495291742820  0.0000
  O3     O3        0.406629695419323    0.241197202853542    0.378482565598695  0.0000
  O1     O1        0.976660262926705    0.011402343735940    0.471685246626237  0.0000
  O1     O1        0.514934567888590    0.016052650120790    0.474626901092443  0.0000
  O1     O1        0.018530847574268    0.051299850211306    0.223641359320927  0.0000
  O1     O1        0.475018279371446    0.979250521916181    0.222864944164273  0.0000
  O1     O1        0.024219156337033    0.010800207840246    0.719469165624703  0.0000
  O1     O1        0.465258746240459    0.010790621546861    0.721440567379380  0.0000
  O1     O1        0.574998901211934    0.229425712794286    0.126426584297215  0.0000
  O1     O1        0.917176045743639    0.796309696118076    0.127359336814956  0.0000
  O3     O3        0.408263869568803    0.212946576810088    0.932246585350585  0.0000
  O1     O1        0.075439540181534    0.767338884288391    0.901643573075115  0.0000
  O1     O1        0.364675628816107    0.863929732518294    0.885693913793497  0.0000
  O1     O1        0.135536615481828    0.095013502887838    0.901983602300744  0.0000
  O1     O1        0.622809917801980    0.890597537988653    0.141857816429936  0.0000
  O1     O1        0.871369736587837    0.137742908951074    0.141815568539080  0.0000
  O1     O1        0.512210088536340    0.959502720073302    0.968798641664648  0.0000
  O1     O1        0.982148801319427    0.046714789963435    0.969092899431668  0.0000
  O3     O3        0.127761912658646    0.482075672039778    0.300497199622997  0.0000
  O3     O3        0.366314693723504    0.547943745307640    0.311725050223703  0.0000
  O1     O1        0.838007590150373    0.463718649369447    0.676605575192522  0.0000
  O3     O3        0.657760766993269    0.517087124145208    0.689449043455002  0.0000
  O3     O3        0.262575404201834    0.312257573383875    0.357978527183925  0.0000
  O3     O3        0.230329915131414    0.722407991986503    0.341371070280025  0.0000
  O3     O3        0.726443193208755    0.225738707948041    0.739437727096534  0.0000
  O1     O1        0.759634716900874    0.777195901615176    0.719776230167249  0.0000
  O1     O1        0.170808035197424    0.194130607095370    0.153471481050050  0.0000
  O1     O1        0.324474081577510    0.806112469974605    0.138419014923364  0.0000
  O1     O1        0.852416743665239    0.260654728389845    0.894325804824478  0.0000
  O1     O1        0.639279003277793    0.760328601542241    0.891758339361947  0.0000
  O1     O1        0.875747584737126    0.675839862597028    0.885140423864466  0.0000
  O3     O3        0.616775161038126    0.339087913082410    0.886014542906372  0.0000
  O3     O3        0.138595540284517    0.738329553951235    0.144174645264050  0.0000
  O2     O2        0.343850736720850    0.286445570832730    0.153229498721208  0.0000
  O1     O1        0.654626127320645    0.543977512061348    0.101259583308236  0.0000
  O1     O1        0.837390796743768    0.483106690046211    0.102521906963538  0.0000
  O3     O3        0.367464165800030    0.526720060229524    0.984529039357584  0.0000
  O1     O1        0.122723356564853    0.443506308233741    0.982155188560792  0.0000
  O1     O1        0.726990649510085    0.231101488960832    0.056956316411331  0.0000
  O1     O1        0.765379893540866    0.791386786206697    0.049508235570396  0.0000
  O3     O3        0.263640843025438    0.289979776801732    0.946411246650996  0.0000
  O1     O1        0.230960966759308    0.694382229915120    0.933149347747950  0.0000
