data_c00133.vasp
_audit_creation_method             Generated by GULP
_audit_author_name                 Salvador R. G. Balestra
_symmetry_space_group_name_H-M     'P 1             '
_symmetry_Int_Tables_number        1

loop_
_symmetry_equiv_pos_site_id
_symmetry_equiv_pos_as_xyz
_cell_length_a                       17.6114
_cell_length_b                        7.8375
_cell_length_c                       10.2574
_cell_angle_alpha                   89.3779
_cell_angle_beta                    91.1061
_cell_angle_gamma                   88.4128

loop_
_atom_site_label
_atom_site_type_symbol
_atom_site_fract_x
_atom_site_fract_y
_atom_site_fract_z
_atom_site_charge
  Ge     Ge        0.052090000000021    0.000000000000000    0.372269999999958  0.0000
  Ge     Ge        0.446160440812463    0.945208278337638    0.407869498371927  0.0000
  Ge     Ge        0.943241284578431    0.958523885388540    0.618555225154629  0.0000
  Ge     Ge        0.546846211415266    0.998330635469971    0.667392526498662  0.0000
  Ge     Ge        0.551980644701682    0.004882228338106    0.165761689228779  0.0000
  Ge     Ge        0.950235866050835    0.940422421015156    0.114461818167085  0.0000
  Ge     Ge        0.441287615510694    0.941620050702417    0.919700932668596  0.0000
  Ge     Ge        0.054472169901391    0.003353897111681    0.865852755186498  0.0000
  Ge     Ge        0.151741029091647    0.310656214809995    0.300121818158094  0.0000
  Ge     Ge        0.353353943700964    0.631517123669422    0.288415363775552  0.0000
  Ge     Ge        0.822869373702544    0.243381693340557    0.729891871305660  0.0000
  Ge     Ge        0.848226752449363    0.642357104943586    0.732580766257992  0.0000
  Ge     Ge        0.640534957462014    0.321575146832443    0.732281331067377  0.0000
  Ge     Ge        0.172751566216085    0.713804402393123    0.297015371894595  0.0000
  Ge     Ge        0.643220814114340    0.315255316558150    0.045937092178490  0.0000
  Ge     Ge        0.851648444044133    0.629005327207468    0.052026795934496  0.0000
  Ge     Ge        0.322219272423333    0.238100856139886    0.984174439417248  0.0000
  Ge     Ge        0.169069011725024    0.704720902261031    0.982646910722415  0.0000
  Ge     Ge        0.673213239494892    0.718653502443924    0.043892001037418  0.0000
  Ge     Ge        0.824282140451421    0.228588665766994    0.045167084066862  0.0000
  Si     Si        0.669881740473651    0.714799163630183    0.732210169482240  0.0000
  Si     Si        0.328027904873845    0.233998731292587    0.293148132016314  0.0000
  Si     Si        0.347614379983339    0.629441293443468    0.981050271397813  0.0000
  Si     Si        0.144844042959626    0.310161120714162    0.988375989696301  0.0000
  O1     O1        0.089497935749573    0.198782137811592    0.390575570520225  0.0000
  O1     O1        0.419343895309160    0.740555391867019    0.375181990377406  0.0000
  O1     O1        0.867164609823151    0.095499563323276    0.634153458634892  0.0000
  O3     O3        0.622536820425303    0.853920121441753    0.646997747866063  0.0000
  O1     O1        0.914386697412801    0.755697263185297    0.651858127674896  0.0000
  O1     O1        0.578671262321896    0.201426601819369    0.642797767773817  0.0000
  O1     O1        0.124634835013999    0.850752380277288    0.396210432952289  0.0000
  O3     O3        0.373327193426357    0.093936337448414    0.379899199538109  0.0000
  O1     O1        0.973036306372486    0.965181403846449    0.459099697604267  0.0000
  O1     O1        0.470448519714403    0.954754125121574    0.570864725168606  0.0000
  O1     O1        0.026291119518050    0.985677182364070    0.209163843281519  0.0000
  O1     O1        0.527138445817940    0.991454076271561    0.326602581328618  0.0000
  O1     O1        0.022706973546259    0.014334025509236    0.706587974874265  0.0000
  O1     O1        0.517536278013961    0.977479609242222    0.826532164955950  0.0000
  O1     O1        0.578594993592632    0.210539057254742    0.136891086973068  0.0000
  O1     O1        0.918062024916324    0.737016470748441    0.139441495236353  0.0000
  O1     O1        0.369926429426041    0.094637594049648    0.892126878041457  0.0000
  O1     O1        0.127053557792959    0.852385812007877    0.879901284364003  0.0000
  O3     O3        0.403126743144581    0.741539450812109    0.895241987525398  0.0000
  O3     O3        0.082698601040479    0.205177357695031    0.910500832596256  0.0000
  O1     O1        0.626984065442255    0.868532795180084    0.133002862128830  0.0000
  O1     O1        0.875197549860399    0.082173891156164    0.136924358336723  0.0000
  O1     O1        0.472025297541265    0.951819923540397    0.079338636799080  0.0000
  O1     O1        0.977759978249025    0.946574992799940    0.953674108416978  0.0000
  O1     O1        0.158796210803611    0.510936508043425    0.357860314660883  0.0000
  O3     O3        0.342955099683185    0.424424713823282    0.345213498569517  0.0000
  O1     O1        0.839950051519625    0.443326942811362    0.667755681916856  0.0000
  O3     O3        0.652800619870134    0.527163574020369    0.675556860224397  0.0000
  O3     O3        0.238650047450554    0.200598289279660    0.300093831558071  0.0000
  O1     O1        0.268643134673335    0.743635840294105    0.298852526730342  0.0000
  O1     O1        0.727049938113925    0.214825192973216    0.732739510799291  0.0000
  O3     O3        0.759468058567854    0.747176567667037    0.727150141985387  0.0000
  O3     O3        0.121606151038083    0.327948037326152    0.138236143299095  0.0000
  O3     O3        0.381031405730229    0.615602679670761    0.128361096352807  0.0000
  O1     O1        0.856817420551015    0.220727442760249    0.887676762670256  0.0000
  O3     O3        0.643069611915105    0.722462292686334    0.881753245025497  0.0000
  O1     O1        0.877133111728859    0.613430943811692    0.891222750658341  0.0000
  O1     O1        0.608265516254855    0.327745158019500    0.888587126088467  0.0000
  O1     O1        0.138023520520591    0.733544808231326    0.138436033632972  0.0000
  O3     O3        0.354786755931039    0.219405427492369    0.144281730705602  0.0000
  O1     O1        0.656895801606445    0.516319224501700    0.103481061014955  0.0000
  O1     O1        0.839166915226141    0.428286086054688    0.110432960848442  0.0000
  O3     O3        0.339112438590632    0.441859371554721    0.924183714888651  0.0000
  O3     O3        0.150531429761701    0.499853108065886    0.929173893519526  0.0000
  O1     O1        0.728314526834700    0.199836896068744    0.045509474038871  0.0000
  O1     O1        0.768454662809238    0.751069953522468    0.053007972438594  0.0000
  O3     O3        0.225641100610678    0.208318278998172    0.978806641292401  0.0000
  O3     O3        0.266218273930702    0.728042003951266    0.987240062563367  0.0000
