data_c00164.vasp
_audit_creation_method             Generated by GULP
_audit_author_name                 Salvador R. G. Balestra
_symmetry_space_group_name_H-M     'P 1             '
_symmetry_Int_Tables_number        1

loop_
_symmetry_equiv_pos_site_id
_symmetry_equiv_pos_as_xyz
_cell_length_a                       17.6659
_cell_length_b                        7.7902
_cell_length_c                        9.9684
_cell_angle_alpha                   90.5257
_cell_angle_beta                    89.3146
_cell_angle_gamma                   85.8296

loop_
_atom_site_label
_atom_site_type_symbol
_atom_site_fract_x
_atom_site_fract_y
_atom_site_fract_z
_atom_site_charge
  Ge     Ge        0.052090000000021    0.000000000000000    0.372269999999958  0.0000
  Ge     Ge        0.442711053092603    0.951742725007085    0.366609537002678  0.0000
  Ge     Ge        0.960509100921579    0.916897886004488    0.633262452609600  0.0000
  Ge     Ge        0.554420368394845    0.993175547136926    0.615100236821181  0.0000
  Ge     Ge        0.546651644165000    0.038998608525728    0.115984888938620  0.0000
  Ge     Ge        0.927805236523252    0.962764637363729    0.151858556438711  0.0000
  Ge     Ge        0.444010273399390    0.946629893424372    0.866641641596517  0.0000
  Ge     Ge        0.047996810294882    0.013199633612337    0.908599812406480  0.0000
  Ge     Ge        0.142926263004381    0.316347209421090    0.269418602484865  0.0000
  Ge     Ge        0.344071254134338    0.650264749742623    0.258964034017295  0.0000
  Ge     Ge        0.830698063926125    0.218264865602354    0.703290151857211  0.0000
  Ge     Ge        0.853097157874691    0.626999187269903    0.687995081155610  0.0000
  Ge     Ge        0.649810192115427    0.307266525228667    0.682611936514415  0.0000
  Ge     Ge        0.632993797741991    0.351302578876798    0.010101643549851  0.0000
  Ge     Ge        0.847370054754615    0.652292263459442    0.011295333461522  0.0000
  Ge     Ge        0.320930396554050    0.243614563995792    0.936351361053182  0.0000
  Ge     Ge        0.347378032622716    0.642428785235241    0.938667396503327  0.0000
  Ge     Ge        0.139534221615749    0.332357773883399    0.937933238376791  0.0000
  Ge     Ge        0.669046848889014    0.741090478094216    0.991434364667392  0.0000
  Ge     Ge        0.815095381019165    0.254860646607256    0.026871093791661  0.0000
  Si     Si        0.678312413738049    0.699308324700509    0.667055563455762  0.0000
  Si     Si        0.172166674571905    0.695543029345846    0.266656326157900  0.0000
  Si     Si        0.320404623307401    0.246065826437901    0.254547237999079  0.0000
  Si     Si        0.173932199995859    0.703231326001903    0.951428073868847  0.0000
  O1     O1        0.080780986850172    0.204799545530685    0.361561913047892  0.0000
  O1     O1        0.410095362808255    0.750725372600880    0.349864761277266  0.0000
  O1     O1        0.886965063032254    0.072399788085096    0.612902522265857  0.0000
  O3     O3        0.631056303790265    0.843975195672034    0.583467125183732  0.0000
  O1     O1        0.921969859270285    0.724759834053588    0.601026657137116  0.0000
  O1     O1        0.587384425057134    0.193199497019964    0.594062821823136  0.0000
  O3     O3        0.122278744958144    0.871925588883939    0.287774138119701  0.0000
  O3     O3        0.370241225200905    0.107367373331190    0.339066692798118  0.0000
  O1     O1        0.039642103470584    0.946863333506120    0.537500163006678  0.0000
  O1     O1        0.473414802085223    0.965882082593620    0.529909335052607  0.0000
  O1     O1        0.963481946097964    0.969586090860375    0.311218663916215  0.0000
  O1     O1        0.524182337560992    0.988061929120316    0.278358056368645  0.0000
  O1     O1        0.989731773695812    0.926557508666682    0.797764631041807  0.0000
  O1     O1        0.526312563757777    0.966170482857414    0.780271399617235  0.0000
  O1     O1        0.567359436957073    0.251765391155239    0.102738878288925  0.0000
  O1     O1        0.909980659022141    0.756878291627880    0.107527792158121  0.0000
  O1     O1        0.368110332533898    0.092214252878026    0.836547488813014  0.0000
  O3     O3        0.132596789845517    0.887323986122764    0.932267452895198  0.0000
  O1     O1        0.412067199718532    0.746102973938813    0.846024603375100  0.0000
  O1     O1        0.077201237895967    0.209094078387564    0.857792035218590  0.0000
  O1     O1        0.628454145102268    0.926489530628884    0.059845205304312  0.0000
  O1     O1        0.848311244915831    0.100220211721213    0.136886290391626  0.0000
  O1     O1        0.467510612648187    0.994142370186117    0.030696004963329  0.0000
  O1     O1        0.000590003820098    0.038570036522896    0.058095912026176  0.0000
  O3     O3        0.126944174199617    0.534898278499912    0.313194829487925  0.0000
  O3     O3        0.359083490897510    0.427707168256696    0.257935311224141  0.0000
  O1     O1        0.872805901048666    0.410841465895743    0.697020730503614  0.0000
  O3     O3        0.634134219412080    0.525975097913633    0.657234642030895  0.0000
  O3     O3        0.236100995184921    0.266740756204394    0.316549068492790  0.0000
  O3     O3        0.254528462412017    0.704684852119420    0.330706858364392  0.0000
  O1     O1        0.741445892813625    0.242729718637934    0.637058653835684  0.0000
  O3     O3        0.764332863483764    0.664071410326611    0.613496823644589  0.0000
  O1     O1        0.128137821439394    0.276375495898354    0.103862503917088  0.0000
  O1     O1        0.355319484754918    0.722245084445060    0.098981692889731  0.0000
  O1     O1        0.822087953664180    0.161863230317728    0.869144474716476  0.0000
  O3     O3        0.686462584581281    0.758491638505745    0.821128917278227  0.0000
  O1     O1        0.854271225674023    0.714278900591962    0.847172295367680  0.0000
  O1     O1        0.635261480210561    0.268185248743624    0.849709954174291  0.0000
  O2     O2        0.193789703037168    0.652658518712790    0.107941922921917  0.0000
  O3     O3        0.314220683278753    0.180147017484413    0.102082577266512  0.0000
  O1     O1        0.612537154592843    0.571542662034370    0.013222648003883  0.0000
  O1     O1        0.867193543002391    0.433765581080173    0.025868257507534  0.0000
  O1     O1        0.369686148701552    0.427159126972311    0.927818556090563  0.0000
  O3     O3        0.121344839118383    0.551657003183446    0.906698880202731  0.0000
  O1     O1        0.723994505853153    0.321801626699296    0.070562034897247  0.0000
  O1     O1        0.755471586626073    0.702895274022091    0.065245732590486  0.0000
  O1     O1        0.230676203066520    0.286839895700778    0.880917905142928  0.0000
  O3     O3        0.255517018882354    0.691485758731726    0.879524318427751  0.0000
