data_c00159.vasp
_audit_creation_method             Generated by GULP
_audit_author_name                 Salvador R. G. Balestra
_symmetry_space_group_name_H-M     'P 1             '
_symmetry_Int_Tables_number        1

loop_
_symmetry_equiv_pos_site_id
_symmetry_equiv_pos_as_xyz
_cell_length_a                       17.6446
_cell_length_b                        7.8375
_cell_length_c                       10.2492
_cell_angle_alpha                   89.7265
_cell_angle_beta                    89.9887
_cell_angle_gamma                   88.4521

loop_
_atom_site_label
_atom_site_type_symbol
_atom_site_fract_x
_atom_site_fract_y
_atom_site_fract_z
_atom_site_charge
  Ge     Ge        0.052090000000021    0.000000000000000    0.372269999999958  0.0000
  Ge     Ge        0.445023828170739    0.953547208702125    0.374454863260239  0.0000
  Ge     Ge        0.948680441549173    0.952067714427291    0.624110828435576  0.0000
  Ge     Ge        0.551404994549847    0.997481397606177    0.627890124156377  0.0000
  Ge     Ge        0.551891540055658    0.002931235345107    0.125889637980023  0.0000
  Ge     Ge        0.938917753759590    0.942833499991695    0.135282099172017  0.0000
  Ge     Ge        0.444663924891357    0.945632912840147    0.878669838551519  0.0000
  Ge     Ge        0.046365003597050    0.009418833023145    0.886489520698929  0.0000
  Ge     Ge        0.142103595641519    0.319620256008530    0.257829300116945  0.0000
  Ge     Ge        0.347339928665233    0.642111962257865    0.257515500974728  0.0000
  Ge     Ge        0.826245209634640    0.236747130532239    0.694716200168368  0.0000
  Ge     Ge        0.848201098132700    0.638869266100799    0.697066035616022  0.0000
  Ge     Ge        0.645941756866682    0.314989503210892    0.695833776976288  0.0000
  Ge     Ge        0.322983092806171    0.242034112115227    0.266405698890610  0.0000
  Ge     Ge        0.849865547584152    0.629523892862703    0.015135071998651  0.0000
  Ge     Ge        0.321933927523170    0.233483671457044    0.949856592265385  0.0000
  Ge     Ge        0.167342929650268    0.710112842367102    0.947082489838441  0.0000
  Ge     Ge        0.346514556755039    0.632159824085492    0.937296217526455  0.0000
  Ge     Ge        0.669015711500115    0.705360000702200    0.009837328392345  0.0000
  Ge     Ge        0.820700029608207    0.228679798814268    0.011825575302665  0.0000
  Si     Si        0.670514948028133    0.712065876572233    0.700919678112182  0.0000
  Si     Si        0.169230310579683    0.715665007629933    0.256650907275062  0.0000
  Si     Si        0.643212588918375    0.308110958262682    0.003541872606833  0.0000
  Si     Si        0.145191858409275    0.314359071584266    0.949860029438745  0.0000
  O1     O1        0.076568520669479    0.207459059274033    0.343069589892767  0.0000
  O1     O1        0.414212358034070    0.753580902557436    0.338148211680094  0.0000
  O1     O1        0.876671730884155    0.100547346158422    0.596477303738947  0.0000
  O3     O3        0.625127924696295    0.847063145689253    0.611102967096064  0.0000
  O1     O1        0.910565663152183    0.754157449044475    0.607322550772099  0.0000
  O1     O1        0.584691972651048    0.199838882984399    0.603815127979205  0.0000
  O3     O3        0.126544997661538    0.859058378221383    0.341611964973603  0.0000
  O1     O1        0.369924828453565    0.094734343086096    0.361603248912480  0.0000
  O1     O1        0.028500488163199    0.980653569534516    0.534896863932222  0.0000
  O1     O1        0.475439936004619    0.952163577419057    0.534649856603227  0.0000
  O1     O1        0.969261099623392    0.952761788227685    0.294122473050489  0.0000
  O1     O1        0.523363302956298    0.008904409321183    0.286216292766995  0.0000
  O1     O1        0.971606530051095    0.982632642559424    0.786551294499334  0.0000
  O1     O1        0.521152414007014    0.992961617283780    0.788106873707813  0.0000
  O3     O3        0.583482522842938    0.204620631777961    0.087692402024595  0.0000
  O1     O1        0.915957006322946    0.736032119062842    0.102402639779074  0.0000
  O1     O1        0.368041328650050    0.084798369364619    0.857359552035069  0.0000
  O1     O1        0.112394341788269    0.847211487510977    0.857719628629749  0.0000
  O1     O1        0.411987369401174    0.743958023350328    0.851688438363281  0.0000
  O3     O3        0.088198724672852    0.206470967206873    0.863810787671789  0.0000
  O1     O1        0.620822033904351    0.846067593242862    0.106692533021824  0.0000
  O1     O1        0.860176066518765    0.072282965397614    0.107945674669262  0.0000
  O1     O1        0.472328779295122    0.956387892526730    0.040030976434229  0.0000
  O1     O1        0.014966134638514    0.006365790878480    0.044882212371018  0.0000
  O3     O3        0.152162358109726    0.527205926435555    0.312367855492202  0.0000
  O1     O1        0.339986257397290    0.443094855791288    0.324458458473109  0.0000
  O1     O1        0.840495543522096    0.439941022247979    0.635273411956853  0.0000
  O3     O3        0.656847620336364    0.522568743774238    0.644559728269765  0.0000
  O1     O1        0.227205377886965    0.211664038275454    0.272219858513176  0.0000
  O3     O3        0.258828614461892    0.746429947039289    0.259996522484315  0.0000
  O1     O1        0.730829545509605    0.203949600323064    0.690071347136262  0.0000
  O3     O3        0.759843665800229    0.744776371704098    0.701281249499895  0.0000
  O3     O3        0.113647118509892    0.332858706236234    0.096846988060451  0.0000
  O1     O1        0.373548706501407    0.616656213620661    0.098295717755970  0.0000
  O1     O1        0.855141080309471    0.218998857176630    0.855377791581314  0.0000
  O3     O3        0.639456208177716    0.726954251061783    0.849018083571671  0.0000
  O1     O1        0.879176147763947    0.622359165189810    0.855434101776778  0.0000
  O3     O3        0.613780614029493    0.323212171664457    0.855519551885622  0.0000
  O3     O3        0.139102427635486    0.729878519359207    0.108683831934914  0.0000
  O1     O1        0.354455053920309    0.222480055771011    0.108081455022787  0.0000
  O3     O3        0.653299912901538    0.496688868894561    0.060319379446395  0.0000
  O1     O1        0.840769738614230    0.426225768478770    0.073793887628328  0.0000
  O1     O1        0.338213523065057    0.430146329221651    0.880429296064922  0.0000
  O3     O3        0.156141659053156    0.501772280297674    0.892093552859085  0.0000
  O3     O3        0.723541123743003    0.204982929889431    0.005201777663818  0.0000
  O1     O1        0.763787434582798    0.738604676195745    0.021828089974171  0.0000
  O3     O3        0.224933098197535    0.208256598222322    0.957058630535771  0.0000
  O1     O1        0.261517580473247    0.747350331713421    0.932300996249786  0.0000
