data_c00122.vasp
_audit_creation_method             Generated by GULP
_audit_author_name                 Salvador R. G. Balestra
_symmetry_space_group_name_H-M     'P 1             '
_symmetry_Int_Tables_number        1

loop_
_symmetry_equiv_pos_site_id
_symmetry_equiv_pos_as_xyz
_cell_length_a                       17.7099
_cell_length_b                        7.8320
_cell_length_c                       10.1836
_cell_angle_alpha                   90.3509
_cell_angle_beta                    90.2262
_cell_angle_gamma                   88.6763

loop_
_atom_site_label
_atom_site_type_symbol
_atom_site_fract_x
_atom_site_fract_y
_atom_site_fract_z
_atom_site_charge
  Ge     Ge        0.052090000000021    0.000000000000000    0.372269999999958  0.0000
  Ge     Ge        0.439995012073444    0.968392954728195    0.327728301771016  0.0000
  Ge     Ge        0.943415855160818    0.938976699855637    0.616915171266012  0.0000
  Ge     Ge        0.547790951688828    0.995295686901675    0.580946049831914  0.0000
  Ge     Ge        0.545412845492133    0.008784982732552    0.074005493903041  0.0000
  Ge     Ge        0.941534077625526    0.947801031336627    0.126644554161624  0.0000
  Ge     Ge        0.437766143013447    0.955915557582010    0.824938601220163  0.0000
  Ge     Ge        0.044380569561499    0.012476133883778    0.873474037480121  0.0000
  Ge     Ge        0.143833235620864    0.318316493173501    0.254098003991170  0.0000
  Ge     Ge        0.344128491506081    0.649747986639187    0.258402262454827  0.0000
  Ge     Ge        0.820080738032915    0.224036643346668    0.690425270166393  0.0000
  Ge     Ge        0.665307587712624    0.698299029322438    0.686577764224098  0.0000
  Ge     Ge        0.845822227957400    0.624557063056378    0.681393293678570  0.0000
  Ge     Ge        0.643658093163315    0.321177455823677    0.011541951598719  0.0000
  Ge     Ge        0.848242804765405    0.637037656519324    0.001711497772734  0.0000
  Ge     Ge        0.322024359761042    0.255065602141166    0.944448601596119  0.0000
  Ge     Ge        0.168495633599318    0.726071859379489    0.946541183919070  0.0000
  Ge     Ge        0.142224369657507    0.324669602288152    0.935367016869629  0.0000
  Ge     Ge        0.669153825192439    0.723443138255694    0.004041403905687  0.0000
  Ge     Ge        0.820710669504266    0.231824554172483    0.010044278381417  0.0000
  Si     Si        0.644004018871716    0.302855734409151    0.698092308091254  0.0000
  Si     Si        0.166174524777817    0.712967501737138    0.257090778857061  0.0000
  Si     Si        0.322694114248240    0.254288312283984    0.255426974394536  0.0000
  Si     Si        0.344612156880330    0.655917364767360    0.949071102870379  0.0000
  O1     O1        0.083685902295377    0.202598578790501    0.347189126574178  0.0000
  O1     O1        0.402340975841366    0.769888659524185    0.352898455853861  0.0000
  O1     O1        0.867643981153691    0.078598528555115    0.594907528134265  0.0000
  O1     O1        0.615061795119783    0.835259436429843    0.587320730418264  0.0000
  O1     O1        0.910147461103169    0.737460145223946    0.592836614564709  0.0000
  O3     O3        0.581708086835428    0.193219316799656    0.624039337757094  0.0000
  O3     O3        0.124995546190094    0.855049774146372    0.345785448183188  0.0000
  O3     O3        0.367380504628685    0.119645428715394    0.345542844175837  0.0000
  O1     O1        0.023206411774420    0.985585775191361    0.533334424988215  0.0000
  O1     O1        0.517511168634867    0.009205829180261    0.419570223201196  0.0000
  O1     O1        0.971367690087018    0.953711864608006    0.287556921623907  0.0000
  O1     O1        0.469002708987158    0.968281488560801    0.166241869397949  0.0000
  O1     O1        0.969050643295180    0.958847426129214    0.781181204362707  0.0000
  O1     O1        0.466751991879486    0.949953496310447    0.664179558274103  0.0000
  O1     O1        0.576893562610979    0.213951476370775    0.095789494067518  0.0000
  O1     O1        0.915360320473943    0.743439150110651    0.088439359674019  0.0000
  O1     O1        0.371876045202767    0.117929317933246    0.846343573891215  0.0000
  O1     O1        0.120924716909834    0.872883271433493    0.855659482316543  0.0000
  O3     O3        0.402725257675612    0.756834276609753    0.860974591469220  0.0000
  O1     O1        0.077965129766852    0.213288983390428    0.844735919050521  0.0000
  O1     O1        0.620153228280441    0.867529550423039    0.098490930509234  0.0000
  O1     O1        0.866217326131303    0.087408057272351    0.108313202698709  0.0000
  O1     O1        0.518279597266356    0.992632164814534    0.911704153190092  0.0000
  O1     O1        0.017122434390201    0.007612126322410    0.035765489878033  0.0000
  O3     O3        0.149380736683336    0.525727037889822    0.313152738179597  0.0000
  O3     O3        0.339553736694471    0.442736413610848    0.311956065055557  0.0000
  O1     O1        0.837115362476901    0.421373569489565    0.624034068594737  0.0000
  O3     O3        0.654067573069988    0.487940574306077    0.633470766740255  0.0000
  O3     O3        0.233543227647197    0.224378741722958    0.256395303038937  0.0000
  O3     O3        0.255093563506063    0.744294595640403    0.258837045385039  0.0000
  O3     O3        0.723221758116187    0.195725370508816    0.693452264223912  0.0000
  O1     O1        0.760339283486344    0.734430691473215    0.678940007143597  0.0000
  O1     O1        0.112017361979199    0.325022428585684    0.096506896827918  0.0000
  O3     O3        0.375629209488481    0.647759349453827    0.097532000625196  0.0000
  O1     O1        0.851819090680881    0.211838941507446    0.850332704490048  0.0000
  O1     O1        0.635718641706390    0.731952640537413    0.844754763243521  0.0000
  O1     O1        0.876212037368063    0.611721829556394    0.841797611947793  0.0000
  O3     O3        0.619105870636395    0.339984014506104    0.846704952982960  0.0000
  O3     O3        0.136113668068522    0.727338394760964    0.107730841073020  0.0000
  O3     O3        0.352398130354751    0.236535961855781    0.105843396241642  0.0000
  O1     O1        0.655454173823394    0.522611586721126    0.069152068987515  0.0000
  O1     O1        0.835572544403522    0.437643935054340    0.064738436954787  0.0000
  O3     O3        0.333686021063734    0.465374063837070    0.895109127813734  0.0000
  O1     O1        0.150290346525155    0.527810331533220    0.880663847269431  0.0000
  O1     O1        0.725642798048923    0.199357298094487    0.016467012091016  0.0000
  O1     O1        0.764562972509399    0.755069749124153    0.003877746978992  0.0000
  O1     O1        0.228036941927246    0.216015878074856    0.932445662124759  0.0000
  O3     O3        0.264410935767867    0.758904382447112    0.946819571463092  0.0000
