data_c00150.vasp
_audit_creation_method             Generated by GULP
_audit_author_name                 Salvador R. G. Balestra
_symmetry_space_group_name_H-M     'P 1             '
_symmetry_Int_Tables_number        1

loop_
_symmetry_equiv_pos_site_id
_symmetry_equiv_pos_as_xyz
_cell_length_a                       17.0229
_cell_length_b                        7.7240
_cell_length_c                       10.8091
_cell_angle_alpha                   88.3369
_cell_angle_beta                    87.9178
_cell_angle_gamma                   88.0378

loop_
_atom_site_label
_atom_site_type_symbol
_atom_site_fract_x
_atom_site_fract_y
_atom_site_fract_z
_atom_site_charge
  Ge     Ge        0.052090000000021    0.000000000000000    0.372269999999958  0.0000
  Ge     Ge        0.463603195525800    0.967421426355891    0.373597316817490  0.0000
  Ge     Ge        0.985264207697271    0.974046900759608    0.652575153207061  0.0000
  Ge     Ge        0.572371624856089    0.985802219238238    0.621861550712134  0.0000
  Ge     Ge        0.564367191892285    0.946245787218165    0.113143758235901  0.0000
  Ge     Ge        0.933006784719707    0.947985569053614    0.147881063515980  0.0000
  Ge     Ge        0.461254406495539    0.981671202089464    0.868550422128535  0.0000
  Ge     Ge        0.067278954159497    0.999548051902239    0.918731940642653  0.0000
  Ge     Ge        0.146820600022669    0.331871932174571    0.299351703301864  0.0000
  Ge     Ge        0.360305728734573    0.672220715121165    0.274526075120975  0.0000
  Ge     Ge        0.882369598244233    0.295720768999203    0.722790568482074  0.0000
  Ge     Ge        0.850835033042425    0.709585365912481    0.758252737927954  0.0000
  Ge     Ge        0.691829742166090    0.256399847036324    0.701948159825750  0.0000
  Ge     Ge        0.336085086323697    0.253526799323992    0.290840155305712  0.0000
  Ge     Ge        0.669822181300745    0.208053490607817    0.986556619474486  0.0000
  Ge     Ge        0.834817885338832    0.642895513447030    0.056619372117210  0.0000
  Ge     Ge        0.337277415784343    0.249489888025789    0.994329200193814  0.0000
  Ge     Ge        0.373203838294913    0.656290122314454    0.980176105560035  0.0000
  Ge     Ge        0.147173797608577    0.341181919438224    0.994571568726551  0.0000
  Ge     Ge        0.650335723038888    0.600590273202523    0.036405087839995  0.0000
  Si     Si        0.669497683053961    0.664051252401911    0.744239530862838  0.0000
  Si     Si        0.181617060535984    0.716300349878553    0.278430188358966  0.0000
  Si     Si        0.193187407535576    0.712575825340533    0.986692414140800  0.0000
  Si     Si        0.854464402395147    0.260439491241933    0.002420599052739  0.0000
  O1     O1        0.081091878539234    0.208858945962908    0.384116105927796  0.0000
  O1     O1        0.423912446627384    0.767717798488989    0.368254391284888  0.0000
  O1     O1        0.954012696477669    0.188968036701447    0.637650016676578  0.0000
  O3     O3        0.608711538659119    0.784475286142873    0.670596129026261  0.0000
  O1     O1        0.898671849243235    0.867414332829276    0.677117519745101  0.0000
  O1     O1        0.641780505492742    0.141009450912419    0.598674562976124  0.0000
  O3     O3        0.129091060546212    0.889167682827316    0.293801604400703  0.0000
  O1     O1        0.388401281768696    0.120691835651316    0.389801883001726  0.0000
  O1     O1        0.034323474309670    0.915046135172587    0.518424663755654  0.0000
  O1     O1        0.534173551521119    0.962513525012981    0.479748794260395  0.0000
  O1     O1        0.968782541518241    0.990745497008157    0.288887134389948  0.0000
  O1     O1        0.511135523305655    0.023104514616789    0.234526679489230  0.0000
  O1     O1        0.044236594210402    0.932662098556019    0.775736175386001  0.0000
  O1     O1        0.496138656842781    0.038905356445948    0.723631845443243  0.0000
  O1     O1        0.655352034048744    0.047134178313485    0.092916376988291  0.0000
  O1     O1        0.882232500431856    0.761010327839194    0.160921302016892  0.0000
  O1     O1        0.374627568582153    0.097665698990325    0.895884361550079  0.0000
  O3     O3        0.157594638508217    0.900340576179489    0.956548853592708  0.0000
  O1     O1        0.440500950427360    0.764310929207580    0.887554548837496  0.0000
  O1     O1        0.082821972216454    0.217786514971396    0.918411576371484  0.0000
  O1     O1        0.580451860702653    0.727135040456494    0.116283779015013  0.0000
  O3     O3        0.866266218862143    0.114384423027838    0.106950705757803  0.0000
  O1     O1        0.525311098154412    0.036894393505823    0.979051056518369  0.0000
  O1     O1        0.004765314043083    0.927802466367117    0.034488529099832  0.0000
  O3     O3        0.132733345893409    0.552535299275156    0.328857514927043  0.0000
  O1     O1        0.376551994818046    0.453782290951761    0.280207056129444  0.0000
  O1     O1        0.897161898121684    0.511634988603323    0.730578969394186  0.0000
  O3     O3        0.653248051853225    0.464499102727807    0.719774072442372  0.0000
  O1     O1        0.240097704783059    0.277758991293854    0.343365919757857  0.0000
  O3     O3        0.266294846157272    0.730015710021048    0.335997862333629  0.0000
  O1     O1        0.790447996034123    0.258779025037054    0.668135783394066  0.0000
  O3     O3        0.757921354674856    0.704823701800611    0.698631742625857  0.0000
  O1     O1        0.128323271937367    0.289251438424369    0.148263908570634  0.0000
  O1     O1        0.380577801143141    0.744845918543703    0.124887581560900  0.0000
  O3     O3        0.895654543891329    0.202407425362894    0.872301499668994  0.0000
  O3     O3        0.659807212121121    0.699020129167107    0.890018092791961  0.0000
  O1     O1        0.843924476276827    0.748549310506895    0.913667914053931  0.0000
  O1     O1        0.663718834955801    0.145118789353425    0.836683317454849  0.0000
  O2     O2        0.208022696219194    0.670212326904301    0.134897440445528  0.0000
  O1     O1        0.335697660109778    0.170004776163636    0.145122006457723  0.0000
  O1     O1        0.617999078424780    0.395464699324337    0.031242047599541  0.0000
  O3     O3        0.885136199200358    0.442969554280793    0.045245439813976  0.0000
  O1     O1        0.390575529268864    0.437399335521985    0.984104689098769  0.0000
  O3     O3        0.134358616493548    0.561438882515138    0.954135260836034  0.0000
  O3     O3        0.763197185326428    0.302363407832592    0.972744933986228  0.0000
  O1     O1        0.738994133548185    0.621198048148829    0.105953382245462  0.0000
  O1     O1        0.243117513574133    0.299320029086476    0.952038223494003  0.0000
  O3     O3        0.279096718980581    0.694864021487401    0.923584748435468  0.0000
