data_c00131.vasp
_audit_creation_method             Generated by GULP
_audit_author_name                 Salvador R. G. Balestra
_symmetry_space_group_name_H-M     'P 1             '
_symmetry_Int_Tables_number        1

loop_
_symmetry_equiv_pos_site_id
_symmetry_equiv_pos_as_xyz
_cell_length_a                       16.8945
_cell_length_b                        7.9208
_cell_length_c                       10.5856
_cell_angle_alpha                   83.6464
_cell_angle_beta                    89.7917
_cell_angle_gamma                   89.9813

loop_
_atom_site_label
_atom_site_type_symbol
_atom_site_fract_x
_atom_site_fract_y
_atom_site_fract_z
_atom_site_charge
  Ge     Ge        0.052090000000021    0.000000000000000    0.372269999999958  0.0000
  Ge     Ge        0.454478533944708    0.011225639838915    0.364296986186257  0.0000
  Ge     Ge        0.964228949629608    0.079281081981938    0.629964795736076  0.0000
  Ge     Ge        0.545051679594716    0.046970095105657    0.629435386885150  0.0000
  Ge     Ge        0.565503102385315    0.003791452362993    0.123277008938205  0.0000
  Ge     Ge        0.934002392991220    0.042325191167150    0.134353611239101  0.0000
  Ge     Ge        0.448062060182855    0.128593925931457    0.891689394009794  0.0000
  Ge     Ge        0.057851952747168    0.122957968851290    0.891675389022638  0.0000
  Ge     Ge        0.169313492701541    0.306754377687184    0.240425839232334  0.0000
  Ge     Ge        0.348027195959236    0.713810683903348    0.288223024095366  0.0000
  Ge     Ge        0.857379001361869    0.372017471743743    0.713008543495823  0.0000
  Ge     Ge        0.833434256307190    0.791074489922209    0.703899916678545  0.0000
  Ge     Ge        0.665741161256469    0.329725610895994    0.697583204163987  0.0000
  Ge     Ge        0.149559077242711    0.695933351411534    0.293575919463477  0.0000
  Ge     Ge        0.659160392304323    0.305267718485654    0.997379683098521  0.0000
  Ge     Ge        0.832796813768212    0.742876253901769    0.014832694765664  0.0000
  Ge     Ge        0.347139308127832    0.450806991510810    0.930920078895583  0.0000
  Ge     Ge        0.159746926894838    0.808032714363246    0.997246173098483  0.0000
  Ge     Ge        0.160420050170771    0.438300684172935    0.926156228819021  0.0000
  Ge     Ge        0.646353350781974    0.686577867766309    0.006854932365671  0.0000
  Si     Si        0.654661310299369    0.726109782161799    0.690732712532119  0.0000
  Si     Si        0.351732427460319    0.332711984013080    0.239201992324086  0.0000
  Si     Si        0.351002464841001    0.809432567524134    0.999992430728653  0.0000
  Si     Si        0.848387208288639    0.356919476892430    0.999794437497881  0.0000
  O1     O1        0.124679531970350    0.121311979901041    0.293998599467591  0.0000
  O1     O1        0.396265070236541    0.833878338452571    0.389504739981406  0.0000
  O1     O1        0.921775096020693    0.277848378615075    0.618193453700467  0.0000
  O3     O3        0.584449303091721    0.843209985482040    0.633089813287266  0.0000
  O1     O1        0.893455051254727    0.927238479656531    0.612350019869371  0.0000
  O1     O1        0.615674594714771    0.201708899676605    0.604342781572142  0.0000
  O1     O1        0.090023721888820    0.796498752230657    0.393910079391616  0.0000
  O3     O3        0.413126648440224    0.183092996792871    0.272764114804090  0.0000
  O1     O1        0.036008336023711    0.070368053999312    0.518024305915633  0.0000
  O1     O1        0.478385063881736    0.073063967730582    0.508102324154490  0.0000
  O1     O1        0.964446407982110    0.021184722203592    0.289344793728891  0.0000
  O1     O1        0.538695101917289    0.968943610732745    0.278144808444639  0.0000
  O1     O1        0.002899780338392    0.038112661133358    0.780459841176889  0.0000
  O1     O1        0.497323918504562    0.051358558917805    0.771031816285268  0.0000
  O1     O1        0.651377150122178    0.126536620719832    0.101032914642977  0.0000
  O1     O1        0.889831862966984    0.856541153038181    0.107887052005582  0.0000
  O1     O1        0.409884170712518    0.327838372023695    0.851852603120557  0.0000
  O1     O1        0.142832160679026    0.995034452781710    0.912063523996344  0.0000
  O3     O3        0.367289733466458    0.988858043931793    0.923550825096035  0.0000
  O1     O1        0.094497686284748    0.321665860919289    0.846170183030208  0.0000
  O1     O1        0.575259747270695    0.817177876648602    0.056511338772544  0.0000
  O3     O3        0.865225142165865    0.209465707456750    0.111004310871669  0.0000
  O1     O1        0.504317566630879    0.135216832235931    0.024907646896830  0.0000
  O1     O1        0.012992647030654    0.099077404927127    0.038154184418563  0.0000
  O1     O1        0.130960115763247    0.482278583158384    0.302089699505683  0.0000
  O3     O3        0.378729168668992    0.504667770829528    0.296059124623473  0.0000
  O1     O1        0.861950946719958    0.586497436657652    0.686741177195406  0.0000
  O3     O3        0.647568879093304    0.540902205338300    0.643715814527202  0.0000
  O3     O3        0.265819197405752    0.281117548858433    0.295292188977077  0.0000
  O1     O1        0.249334650165576    0.724829089125822    0.319423444858153  0.0000
  O1     O1        0.764969682613213    0.290264129195974    0.689286658376949  0.0000
  O3     O3        0.737528908457910    0.814892194088881    0.647532270314069  0.0000
  O1     O1        0.161975081585696    0.335833850995845    0.078732056638444  0.0000
  O3     O3        0.384055107097982    0.813340887740424    0.142698637370182  0.0000
  O3     O3        0.889669130964764    0.309922452282483    0.869618426170814  0.0000
  O3     O3        0.658257197054315    0.699117314699069    0.844038806979812  0.0000
  O1     O1        0.838937109726491    0.832953238712726    0.859701493627161  0.0000
  O1     O1        0.626914404428457    0.271897750539570    0.847468403527374  0.0000
  O1     O1        0.120284733136167    0.794396299514015    0.147437890209827  0.0000
  O3     O3        0.340211378298008    0.366092954050477    0.087868082992359  0.0000
  O1     O1        0.618214141257725    0.481097668695460    0.053885052333711  0.0000
  O3     O3        0.875448849798885    0.540941658123877    0.032453726226876  0.0000
  O3     O3        0.385582909056811    0.655396555337897    0.927864671775227  0.0000
  O1     O1        0.124676485464015    0.640180721378227    0.922466228438592  0.0000
  O3     O3        0.755552074263116    0.380137376495213    0.964026661640291  0.0000
  O1     O1        0.736423559241592    0.741535182594788    0.066976101113892  0.0000
  O1     O1        0.255002103915103    0.444486866528355    0.863981243388551  0.0000
  O3     O3        0.259036213592709    0.754195928982944    0.023782881645944  0.0000
