data_c00128.vasp
_audit_creation_method             Generated by GULP
_audit_author_name                 Salvador R. G. Balestra
_symmetry_space_group_name_H-M     'P 1             '
_symmetry_Int_Tables_number        1

loop_
_symmetry_equiv_pos_site_id
_symmetry_equiv_pos_as_xyz
_cell_length_a                       17.3884
_cell_length_b                        7.7824
_cell_length_c                       10.5284
_cell_angle_alpha                   86.9314
_cell_angle_beta                    92.2061
_cell_angle_gamma                   87.2673

loop_
_atom_site_label
_atom_site_type_symbol
_atom_site_fract_x
_atom_site_fract_y
_atom_site_fract_z
_atom_site_charge
  Ge     Ge        0.052090000000021    0.000000000000000    0.372269999999958  0.0000
  Ge     Ge        0.454879250033652    0.957375414343611    0.337801352135749  0.0000
  Ge     Ge        0.944844318260877    0.027483095850740    0.618407146885382  0.0000
  Ge     Ge        0.534469240154347    0.029432643965091    0.615514299221178  0.0000
  Ge     Ge        0.560309359020533    0.008984536297382    0.098044732544618  0.0000
  Ge     Ge        0.934223334103899    0.018645194776620    0.127048293740440  0.0000
  Ge     Ge        0.436636882467135    0.021961295454881    0.873624655160018  0.0000
  Ge     Ge        0.041296254506039    0.050807835733471    0.883761747822387  0.0000
  Ge     Ge        0.155378496837922    0.297784505791127    0.246412751809395  0.0000
  Ge     Ge        0.359187957286262    0.639823252113340    0.271279249052052  0.0000
  Ge     Ge        0.845798789492681    0.340667310734790    0.704549834251984  0.0000
  Ge     Ge        0.815319153055421    0.769238612205184    0.689832348979633  0.0000
  Ge     Ge        0.658646672901129    0.299078233619867    0.690364053589785  0.0000
  Ge     Ge        0.175033465856567    0.712475321819778    0.269378207017398  0.0000
  Ge     Ge        0.661742208614439    0.304345411663800    0.994153291223535  0.0000
  Ge     Ge        0.819356788448513    0.751894717626378    0.997967977536305  0.0000
  Ge     Ge        0.310880631616774    0.307706485456682    0.936226223853798  0.0000
  Ge     Ge        0.169958533360749    0.765963626759860    0.965508537633731  0.0000
  Ge     Ge        0.357196867725887    0.678486949054898    0.956545855427630  0.0000
  Ge     Ge        0.132139151179783    0.369498126063252    0.945107224754286  0.0000
  Si     Si        0.644239712279998    0.697471252109574    0.683510089298494  0.0000
  Si     Si        0.329187154175720    0.259045279755427    0.243647012509234  0.0000
  Si     Si        0.645712622158840    0.687802370230320    0.985972095660195  0.0000
  Si     Si        0.850595906392725    0.349535901267633    0.997527399506894  0.0000
  O1     O1        0.091803289182494    0.192214539281979    0.338582975895759  0.0000
  O1     O1        0.423803710985401    0.753434931958791    0.357436669339097  0.0000
  O1     O1        0.906257121262844    0.236913123794438    0.607046073515164  0.0000
  O3     O3        0.569049749667500    0.817219326197188    0.649393429252523  0.0000
  O1     O1        0.870107793352785    0.892542921107332    0.594547478694471  0.0000
  O1     O1        0.608292029333794    0.164686171533080    0.597854072528887  0.0000
  O1     O1        0.119365575143415    0.833039284006362    0.365275201159761  0.0000
  O3     O3        0.382300181875656    0.085688577537991    0.254425743439979  0.0000
  O1     O1        0.020964085845399    0.997538685623854    0.525578204851978  0.0000
  O1     O1        0.475950869391827    0.039508315969881    0.480814395078457  0.0000
  O1     O1        0.969140590969965    0.981146297466885    0.279991774134646  0.0000
  O1     O1        0.536869053427869    0.956066829615595    0.249684421105719  0.0000
  O1     O1        0.977290494346916    0.983842673375687    0.773541935911962  0.0000
  O1     O1        0.479330372541722    0.089449509904318    0.738121668126649  0.0000
  O1     O1        0.634106146002000    0.147059242161931    0.099689526509781  0.0000
  O1     O1        0.860552745793040    0.884770374016227    0.100560908796670  0.0000
  O1     O1        0.345699166949777    0.119967780591209    0.882664811217682  0.0000
  O1     O1        0.128517594463862    0.934964384930842    0.875614158749180  0.0000
  O1     O1        0.419047109610513    0.807102052733408    0.877456804057771  0.0000
  O1     O1        0.060971827389887    0.265184046637234    0.865072865625488  0.0000
  O3     O3        0.579679162917268    0.829594488735544    0.007614883795114  0.0000
  O3     O3        0.897158798045204    0.232096386205384    0.105398664042767  0.0000
  O1     O1        0.483469083457481    0.095972460845895    0.006256649948239  0.0000
  O1     O1        0.008535149034769    0.982480522001294    0.030248362409450  0.0000
  O1     O1        0.137484204120814    0.514906889231309    0.256837968776674  0.0000
  O3     O3        0.376312935211024    0.417103165824509    0.294922132147746  0.0000
  O1     O1        0.845939900236444    0.557445819711899    0.680131575272435  0.0000
  O3     O3        0.634230978679047    0.509583567474254    0.632871343190333  0.0000
  O3     O3        0.248032030047562    0.234244199836394    0.309405427457424  0.0000
  O1     O1        0.269253974160981    0.683611310269023    0.325309569925008  0.0000
  O1     O1        0.755530296915700    0.262006088483529    0.680285425819024  0.0000
  O3     O3        0.719351555836286    0.786539539743659    0.632751789910422  0.0000
  O1     O1        0.135955086666047    0.253645842050903    0.091414566458522  0.0000
  O1     O1        0.372882676950350    0.709682036003567    0.116389828800832  0.0000
  O3     O3        0.877851490832315    0.286487609757908    0.862124277589452  0.0000
  O2     O2        0.663636909614834    0.660656793232023    0.836536646325892  0.0000
  O1     O1        0.821851752350288    0.833593348272469    0.843783174052621  0.0000
  O1     O1        0.632509545058225    0.251379050551332    0.844598763066041  0.0000
  O1     O1        0.177345243579290    0.817757022192304    0.122697500222233  0.0000
  O3     O3        0.298251094532928    0.321867352947071    0.100332917005207  0.0000
  O3     O3        0.621690241324227    0.501491131820457    0.037959175761067  0.0000
  O3     O3        0.866129938960385    0.549351033756346    0.011547640811458  0.0000
  O1     O1        0.372753989406972    0.471466752529690    0.910278827372675  0.0000
  O1     O1        0.114483119948448    0.585481188449286    0.955319540312744  0.0000
  O3     O3        0.758877149497365    0.330767234156505    0.998603946820820  0.0000
  O3     O3        0.725161888148534    0.745769251310105    0.048509867470727  0.0000
  O1     O1        0.219081051315204    0.342503498610684    0.873572327920659  0.0000
  O1     O1        0.260529243198676    0.715652349829755    0.916632729082466  0.0000
