data_c00115.vasp
_audit_creation_method             Generated by GULP
_audit_author_name                 Salvador R. G. Balestra
_symmetry_space_group_name_H-M     'P 1             '
_symmetry_Int_Tables_number        1

loop_
_symmetry_equiv_pos_site_id
_symmetry_equiv_pos_as_xyz
_cell_length_a                       17.6379
_cell_length_b                        7.8097
_cell_length_c                       10.2362
_cell_angle_alpha                   91.1567
_cell_angle_beta                    90.3042
_cell_angle_gamma                   91.1653

loop_
_atom_site_label
_atom_site_type_symbol
_atom_site_fract_x
_atom_site_fract_y
_atom_site_fract_z
_atom_site_charge
  Ge     Ge        0.052090000000021    0.000000000000000    0.372269999999958  0.0000
  Ge     Ge        0.446710361719335    0.064531728975626    0.381809394745631  0.0000
  Ge     Ge        0.945012667097188    0.032264525643407    0.627117547088864  0.0000
  Ge     Ge        0.550768123209911    0.997941676631199    0.631326776132807  0.0000
  Ge     Ge        0.543300812287378    0.001881755167374    0.120763735137659  0.0000
  Ge     Ge        0.947874892542385    0.064733907549476    0.120565075785537  0.0000
  Ge     Ge        0.436286436449216    0.056195686453864    0.868939913462719  0.0000
  Ge     Ge        0.053936601128766    0.995748340283813    0.874637339829744  0.0000
  Ge     Ge        0.169764332175421    0.292335788037110    0.300989591738700  0.0000
  Ge     Ge        0.323951160040657    0.780193403651718    0.303932197715070  0.0000
  Ge     Ge        0.848809107226065    0.352132532688440    0.743427906396747  0.0000
  Ge     Ge        0.640183640224122    0.675821159657336    0.741030033398176  0.0000
  Ge     Ge        0.822513704262801    0.751685174414092    0.734439885925915  0.0000
  Ge     Ge        0.349449886299784    0.373868293776031    0.302661542583601  0.0000
  Ge     Ge        0.670506567358562    0.286040591948044    0.056177857835470  0.0000
  Ge     Ge        0.822583889541130    0.776391896071233    0.050590968422967  0.0000
  Ge     Ge        0.320242831457527    0.766332480703050    0.985010114394820  0.0000
  Ge     Ge        0.168463859201461    0.294117659316175    0.987464171902817  0.0000
  Ge     Ge        0.643578858007939    0.689879322729002    0.056096148168287  0.0000
  Ge     Ge        0.847426796093935    0.374084954758056    0.063916865683616  0.0000
  Si     Si        0.670630177465915    0.280978251036020    0.744434721705463  0.0000
  Si     Si        0.150399950028237    0.690303769777114    0.303569894111269  0.0000
  Si     Si        0.347161744086535    0.368753440673741    0.992515863915523  0.0000
  Si     Si        0.144695949180283    0.688386385801484    0.994198406358430  0.0000
  O1     O1        0.120549363568788    0.157004394550295    0.400593694659090  0.0000
  O1     O1        0.372455242913803    0.920832285548219    0.403873470196565  0.0000
  O1     O1        0.916380681357784    0.236027271571575    0.665392756503513  0.0000
  O1     O1        0.575608308832275    0.789253305520940    0.652781646900797  0.0000
  O1     O1        0.868321893520548    0.897202507534357    0.638829801603976  0.0000
  O3     O3        0.627794831170187    0.131441893219765    0.663092827291983  0.0000
  O3     O3        0.087289382212762    0.793906738284456    0.381226072877979  0.0000
  O1     O1        0.413666676363751    0.268967109232185    0.396275251302103  0.0000
  O1     O1        0.974585069277301    0.026496650314054    0.466640167608658  0.0000
  O1     O1        0.525709197519917    0.023466673875198    0.469401365371414  0.0000
  O1     O1        0.024710090936014    0.020189540721959    0.211660044303729  0.0000
  O1     O1        0.468448286734064    0.040424215129905    0.217538021325731  0.0000
  O1     O1        0.023582912722928    0.974523809600871    0.715318935583008  0.0000
  O1     O1        0.468993615075296    0.053566033416125    0.711050419573746  0.0000
  O1     O1        0.616003284612217    0.150823769542499    0.144588665599178  0.0000
  O1     O1        0.873816253127250    0.921483220296320    0.142429693613032  0.0000
  O3     O3        0.405499447354269    0.260420544575953    0.907097811074984  0.0000
  O3     O3        0.078513182822898    0.794809749133999    0.930709565873726  0.0000
  O1     O1        0.363992440622966    0.906961447282481    0.883986321768526  0.0000
  O1     O1        0.127275795714731    0.144006625945576    0.885003283720317  0.0000
  O1     O1        0.580034229826841    0.802850316301545    0.146860349336484  0.0000
  O1     O1        0.914018093288421    0.267199027356160    0.150341517899204  0.0000
  O1     O1        0.513773526925875    0.006350909540146    0.960077964878277  0.0000
  O1     O1        0.976266469958514    0.061299305380329    0.959172526740897  0.0000
  O3     O3        0.159612935300579    0.502884748750787    0.359317706306564  0.0000
  O1     O1        0.341774563294674    0.578162607663458    0.359291464015511  0.0000
  O1     O1        0.840938335325707    0.549284246336110    0.675071642989943  0.0000
  O3     O3        0.651986239402119    0.465980441469580    0.685288300214185  0.0000
  O1     O1        0.265220514823970    0.257945703984457    0.305806341099932  0.0000
  O3     O3        0.226904773183324    0.806435539218731    0.313107698173958  0.0000
  O3     O3        0.760260591749998    0.248666506873519    0.739701065690159  0.0000
  O1     O1        0.726524560207014    0.780149784468410    0.732994922995645  0.0000
  O1     O1        0.136449770292704    0.263383440628187    0.143318119930175  0.0000
  O1     O1        0.350331767775360    0.801896780075596    0.142825028417916  0.0000
  O1     O1        0.874017283303705    0.388366697710146    0.902890271908023  0.0000
  O1     O1        0.609336153655728    0.670344559750476    0.898369473017150  0.0000
  O1     O1        0.855347862391844    0.780216407317987    0.892356913514913  0.0000
  O3     O3        0.641975854378506    0.277932160342588    0.893419325135096  0.0000
  O2     O2        0.131349173977316    0.661245588496179    0.149092311518836  0.0000
  O3     O3        0.377705696997528    0.385750746037157    0.140462325969430  0.0000
  O1     O1        0.658317654063365    0.492428047596660    0.116322898971682  0.0000
  O1     O1        0.834064790666674    0.577343435388543    0.119499561282157  0.0000
  O3     O3        0.339183980887823    0.557447216627824    0.935633613826247  0.0000
  O3     O3        0.147923535067818    0.497955426909218    0.932792462061872  0.0000
  O1     O1        0.765160913372950    0.249003996433864    0.067306854988449  0.0000
  O1     O1        0.726988731914555    0.809968011040008    0.048773155098035  0.0000
  O3     O3        0.265682861443765    0.271149244537359    0.991264941937694  0.0000
  O3     O3        0.223212768320547    0.792545672527325    0.973715979021099  0.0000
