data_c00100.vasp
_audit_creation_method             Generated by GULP
_audit_author_name                 Salvador R. G. Balestra
_symmetry_space_group_name_H-M     'P 1             '
_symmetry_Int_Tables_number        1

loop_
_symmetry_equiv_pos_site_id
_symmetry_equiv_pos_as_xyz
_cell_length_a                       17.6160
_cell_length_b                        7.8297
_cell_length_c                       10.2289
_cell_angle_alpha                   89.3322
_cell_angle_beta                    90.8783
_cell_angle_gamma                   91.6100

loop_
_atom_site_label
_atom_site_type_symbol
_atom_site_fract_x
_atom_site_fract_y
_atom_site_fract_z
_atom_site_charge
  Ge     Ge        0.052090000000021    0.000000000000000    0.372269999999958  0.0000
  Ge     Ge        0.449570594246636    0.066761659905449    0.371398711977633  0.0000
  Ge     Ge        0.947286696591707    0.061625241369131    0.620399687936409  0.0000
  Ge     Ge        0.554999129234284    0.021493495514440    0.626928633200324  0.0000
  Ge     Ge        0.552445459374236    0.001531771649896    0.119769938265957  0.0000
  Ge     Ge        0.951519983140914    0.055215987836285    0.110703828489690  0.0000
  Ge     Ge        0.446167715428966    0.070987021290072    0.869204343073971  0.0000
  Ge     Ge        0.059625872274035    0.008366272777816    0.864824953714983  0.0000
  Ge     Ge        0.174163589995402    0.288847195548443    0.296440609555362  0.0000
  Ge     Ge        0.330683772415088    0.771003310529926    0.303117454366694  0.0000
  Ge     Ge        0.853983052135907    0.374381842359206    0.734170611253921  0.0000
  Ge     Ge        0.643618316515286    0.697405398599845    0.741967830971910  0.0000
  Ge     Ge        0.825259676402767    0.773165355924440    0.735995187879911  0.0000
  Ge     Ge        0.150702603715213    0.691504296712018    0.303548662648417  0.0000
  Ge     Ge        0.676652283255606    0.293147247575249    0.050726056820669  0.0000
  Ge     Ge        0.356223876320908    0.383328719315807    0.988524265994715  0.0000
  Ge     Ge        0.327657403635712    0.784310003528826    0.986690102326360  0.0000
  Ge     Ge        0.175483585463790    0.303299978767575    0.980686334123230  0.0000
  Ge     Ge        0.652679804179568    0.693230228823234    0.059219212972374  0.0000
  Ge     Ge        0.856519884869333    0.374378242702827    0.050387172541427  0.0000
  Si     Si        0.673692282097190    0.304127148844697    0.740536246713926  0.0000
  Si     Si        0.350802904531820    0.374814196083992    0.299648873541240  0.0000
  Si     Si        0.829797607689684    0.768047751547151    0.047382215979843  0.0000
  Si     Si        0.150375594282136    0.700613604690462    0.992008846941218  0.0000
  O1     O1        0.127070429069398    0.144514886151125    0.393375627870042  0.0000
  O1     O1        0.383315838436300    0.905365963556814    0.401570691738729  0.0000
  O1     O1        0.917931326698685    0.265596813877776    0.645177578768052  0.0000
  O1     O1        0.578601805239259    0.812636404043922    0.654277940841545  0.0000
  O1     O1        0.869962719309060    0.931011123236590    0.648868946924218  0.0000
  O3     O3        0.631791677073222    0.157394194095904    0.657061209775244  0.0000
  O1     O1        0.086361506221984    0.798196555723526    0.393084752322859  0.0000
  O3     O3        0.409406972677058    0.265609792478652    0.385275368690925  0.0000
  O1     O1        0.974101298804522    0.043610553526187    0.459370564094135  0.0000
  O1     O1        0.529396349066534    0.046833260056500    0.464756842102133  0.0000
  O1     O1        0.026654845895818    0.011466990673573    0.208274355107870  0.0000
  O1     O1        0.476289491718346    0.045715469520390    0.210791234218302  0.0000
  O1     O1        0.027813301340934    0.004474448251546    0.704943559312684  0.0000
  O1     O1        0.474521177553330    0.071548905761689    0.709529672749507  0.0000
  O1     O1        0.625513215382345    0.149574608073439    0.140382375676293  0.0000
  O3     O3        0.877589449488744    0.904948064979613    0.130775045596780  0.0000
  O1     O1        0.425439037299202    0.276588447686602    0.912151435135908  0.0000
  O3     O3        0.089902715317450    0.806513773956003    0.908481854790608  0.0000
  O1     O1        0.366711325979850    0.940947825453767    0.890156945905053  0.0000
  O1     O1        0.129606788673993    0.164086821950766    0.877487531871775  0.0000
  O1     O1        0.592060352575236    0.806241935565230    0.151346292078950  0.0000
  O1     O1        0.918488864909823    0.256153537772993    0.141304431508940  0.0000
  O1     O1        0.521821958611438    0.999334959113115    0.958842179818455  0.0000
  O1     O1        0.980976642968223    0.056728136316934    0.951118814651790  0.0000
  O1     O1        0.157749706300876    0.487326938306193    0.359287889779404  0.0000
  O3     O3        0.339660748946515    0.560365514024027    0.358816558595615  0.0000
  O1     O1        0.846291567826992    0.577547557756932    0.673083994316380  0.0000
  O3     O3        0.653825594506554    0.491371640584219    0.684051168670528  0.0000
  O3     O3        0.271615614631252    0.265169810404189    0.293461716991398  0.0000
  O1     O1        0.235424924539183    0.806795935545879    0.310472360577987  0.0000
  O3     O3        0.763709905020790    0.278116416935741    0.737058652779885  0.0000
  O1     O1        0.729955722136558    0.803238289176416    0.729042722806733  0.0000
  O1     O1        0.142870437792826    0.269883338848653    0.136499277008037  0.0000
  O1     O1        0.361120018335416    0.799999454876710    0.145115372311470  0.0000
  O1     O1        0.887193115404310    0.381806868890724    0.892110225082282  0.0000
  O1     O1        0.617179314298297    0.685854916716291    0.901487853777288  0.0000
  O3     O3        0.857053836629380    0.774523192435380    0.897532325714374  0.0000
  O3     O3        0.644485742279240    0.290794209447432    0.888996798556586  0.0000
  O3     O3        0.122822623116818    0.675893743680185    0.140007203910497  0.0000
  O3     O3        0.380256269743800    0.403353787563665    0.152739063732033  0.0000
  O1     O1        0.662055542226532    0.491470810441541    0.117005984384478  0.0000
  O3     O3        0.844398073901288    0.578335499403063    0.106434236905156  0.0000
  O1     O1        0.349002209321902    0.586906691724758    0.927157853721049  0.0000
  O3     O3        0.161029921152939    0.514297699083959    0.932043296481095  0.0000
  O1     O1        0.771478152499633    0.260128894701438    0.053832789816732  0.0000
  O3     O3        0.740492769887822    0.801310240069298    0.051322879284150  0.0000
  O1     O1        0.271147668511580    0.272332727465299    0.973787899426391  0.0000
  O3     O3        0.230242305099366    0.806325920849016    0.991561014029830  0.0000
