data_c00121.vasp
_audit_creation_method             Generated by GULP
_audit_author_name                 Salvador R. G. Balestra
_symmetry_space_group_name_H-M     'P 1             '
_symmetry_Int_Tables_number        1

loop_
_symmetry_equiv_pos_site_id
_symmetry_equiv_pos_as_xyz
_cell_length_a                       17.6477
_cell_length_b                        7.8372
_cell_length_c                       10.1523
_cell_angle_alpha                   90.5735
_cell_angle_beta                    90.7637
_cell_angle_gamma                   91.6990

loop_
_atom_site_label
_atom_site_type_symbol
_atom_site_fract_x
_atom_site_fract_y
_atom_site_fract_z
_atom_site_charge
  Ge     Ge        0.052090000000021    0.000000000000000    0.372269999999958  0.0000
  Ge     Ge        0.441798724511155    0.062552652097088    0.369837131979239  0.0000
  Ge     Ge        0.942061117205672    0.048953924158715    0.620038321740022  0.0000
  Ge     Ge        0.549194315956830    0.004719219660641    0.620651501577989  0.0000
  Ge     Ge        0.543243978747221    0.995838445197467    0.116282143081709  0.0000
  Ge     Ge        0.945730425041857    0.062060574756832    0.121144033464925  0.0000
  Ge     Ge        0.437646422553733    0.051379232726376    0.862627137003049  0.0000
  Ge     Ge        0.049149440964861    0.999069807239292    0.872481963372824  0.0000
  Ge     Ge        0.169595718214675    0.296572426414804    0.302581758001804  0.0000
  Ge     Ge        0.324072176912504    0.764340434296269    0.298858580515278  0.0000
  Ge     Ge        0.846297236639678    0.362829984374564    0.735341505171658  0.0000
  Ge     Ge        0.638254623165482    0.683893979001825    0.735861025973826  0.0000
  Ge     Ge        0.820484975591034    0.761935151560751    0.732462536677373  0.0000
  Ge     Ge        0.668896577597311    0.284427823724373    0.049601621251782  0.0000
  Ge     Ge        0.821367548143533    0.772788074050188    0.051661997465092  0.0000
  Ge     Ge        0.343806308593717    0.362690252490930    0.988546278287882  0.0000
  Ge     Ge        0.138787366534103    0.682374023940534    0.992682268166958  0.0000
  Ge     Ge        0.319374171022755    0.764912299567692    0.980205806532607  0.0000
  Ge     Ge        0.641877167178816    0.686486191833294    0.054090042463311  0.0000
  Ge     Ge        0.847022346932485    0.370988398099630    0.056980566263320  0.0000
  Si     Si        0.667542916710770    0.290165275059139    0.736657476449511  0.0000
  Si     Si        0.146150698896282    0.689464818334712    0.303938534510042  0.0000
  Si     Si        0.346104646422463    0.371568511889766    0.303447757733203  0.0000
  Si     Si        0.166457934414234    0.285799855004004    0.989809082328818  0.0000
  O1     O1        0.121479544458746    0.156997007907887    0.399822535816980  0.0000
  O1     O1        0.372140229143589    0.908337809454588    0.397888428000599  0.0000
  O1     O1        0.911045766331206    0.251153830667425    0.648730223337096  0.0000
  O1     O1        0.574895669730447    0.797628357958009    0.644538963329826  0.0000
  O1     O1        0.866330745068600    0.911430507254142    0.639163427765313  0.0000
  O3     O3        0.625334315025424    0.142622169652616    0.651698221069232  0.0000
  O3     O3        0.091087107903025    0.801129836754646    0.392623557103664  0.0000
  O3     O3        0.405496157032436    0.264752380211229    0.387608965119507  0.0000
  O1     O1        0.972332509290010    0.031009706926045    0.459402283982772  0.0000
  O1     O1        0.522505998678605    0.031545194887593    0.458068812121549  0.0000
  O1     O1        0.024771017409897    0.018354350712975    0.209250464284781  0.0000
  O1     O1        0.466391355262904    0.040922214067943    0.206407112408095  0.0000
  O1     O1        0.022219611687243    0.003489516332076    0.709489053496862  0.0000
  O1     O1        0.467898497558275    0.053083378752877    0.702568743545235  0.0000
  O1     O1        0.616241944874202    0.144976143515080    0.139145425025673  0.0000
  O1     O1        0.872571787004189    0.915845093176937    0.146333916275900  0.0000
  O1     O1        0.409989377523560    0.253173845113833    0.906113270576585  0.0000
  O1     O1        0.072522605110554    0.791719089851868    0.907560909119029  0.0000
  O1     O1        0.362027178308697    0.911466015513162    0.880390570590385  0.0000
  O3     O3        0.124513651159827    0.141664711438034    0.901375796810125  0.0000
  O1     O1        0.579219780955965    0.798008099575606    0.146317864232445  0.0000
  O1     O1        0.912027581444562    0.262945215939384    0.147940184707654  0.0000
  O1     O1        0.515204095973627    0.994969456678990    0.952809271590520  0.0000
  O1     O1        0.970658678008783    0.054116854188102    0.957012476973734  0.0000
  O3     O3        0.154498337889238    0.501986843544172    0.361366973026940  0.0000
  O3     O3        0.339654026835560    0.561278520911758    0.360122279994375  0.0000
  O1     O1        0.838477761818579    0.562091437867927    0.670532008981839  0.0000
  O3     O3        0.649518158467447    0.476065886529724    0.678593844637177  0.0000
  O3     O3        0.265866747391505    0.266615906258778    0.307751324764869  0.0000
  O3     O3        0.227172311827255    0.790508821451019    0.297528228674814  0.0000
  O3     O3        0.757240201618030    0.260949832629771    0.734919566980877  0.0000
  O1     O1        0.724679153824783    0.789866749281317    0.730213713323638  0.0000
  O3     O3        0.138817950130790    0.273225993661887    0.140362302635927  0.0000
  O1     O1        0.353742293239150    0.787388404274409    0.139462758028045  0.0000
  O1     O1        0.875746349678468    0.385364202852780    0.895969075130270  0.0000
  O1     O1        0.607724206226441    0.672626047379151    0.894269349653826  0.0000
  O1     O1        0.853516151371021    0.779757958101501    0.892208998844345  0.0000
  O3     O3        0.638160548322106    0.280670592494818    0.886083076168490  0.0000
  O3     O3        0.112497778968965    0.672530497481858    0.156033250819780  0.0000
  O3     O3        0.371442998359590    0.386506715742772    0.152176197997786  0.0000
  O1     O1        0.655932586754680    0.487644578568101    0.112457821524370  0.0000
  O1     O1        0.833871267077584    0.571242269331704    0.115874579660861  0.0000
  O1     O1        0.337374543491574    0.561971745133447    0.924339146326048  0.0000
  O3     O3        0.147963687972301    0.474185106757200    0.936780557660099  0.0000
  O1     O1        0.763605938517836    0.248659758584829    0.057443858855268  0.0000
  O1     O1        0.725993402021152    0.805431566120512    0.050054830632697  0.0000
  O3     O3        0.256074808491434    0.257146213004248    0.983573847782785  0.0000
  O1     O1        0.223534081806485    0.791344586894226    0.978021994571667  0.0000
