data_c00145.vasp
_audit_creation_method             Generated by GULP
_audit_author_name                 Salvador R. G. Balestra
_symmetry_space_group_name_H-M     'P 1             '
_symmetry_Int_Tables_number        1

loop_
_symmetry_equiv_pos_site_id
_symmetry_equiv_pos_as_xyz
_cell_length_a                       17.6946
_cell_length_b                        7.8087
_cell_length_c                       10.1951
_cell_angle_alpha                   89.7069
_cell_angle_beta                    90.3018
_cell_angle_gamma                   91.1997

loop_
_atom_site_label
_atom_site_type_symbol
_atom_site_fract_x
_atom_site_fract_y
_atom_site_fract_z
_atom_site_charge
  Ge     Ge        0.052090000000021    0.000000000000000    0.372269999999958  0.0000
  Ge     Ge        0.448755956473203    0.046456128630754    0.378338181374741  0.0000
  Ge     Ge        0.948992606639074    0.054849591324316    0.627047630697549  0.0000
  Ge     Ge        0.556367819748280    0.998572777883488    0.626401847140429  0.0000
  Ge     Ge        0.546789023072505    0.983826674794528    0.117887243736712  0.0000
  Ge     Ge        0.945756749268365    0.051176793661708    0.118177559304437  0.0000
  Ge     Ge        0.441734001641362    0.048544271047699    0.863476302896551  0.0000
  Ge     Ge        0.055117484088483    0.999196855479185    0.875425634484740  0.0000
  Ge     Ge        0.172795938437814    0.291490598992532    0.307209062764017  0.0000
  Ge     Ge        0.324984278459799    0.766159701896365    0.300493649080374  0.0000
  Ge     Ge        0.853636511104971    0.366306053343213    0.739309256687599  0.0000
  Ge     Ge        0.826205789012252    0.769598900629221    0.742824957175828  0.0000
  Ge     Ge        0.673139435386214    0.294482509774831    0.732262025027770  0.0000
  Ge     Ge        0.352548845400105    0.363633190398155    0.310327882100513  0.0000
  Ge     Ge        0.670451857041498    0.272011698793731    0.047842460482075  0.0000
  Ge     Ge        0.826005363061586    0.754088964256435    0.062206897683011  0.0000
  Ge     Ge        0.348447799166446    0.359216009029698    0.989377583655116  0.0000
  Ge     Ge        0.143210599903441    0.678868368603246    0.994269680236919  0.0000
  Ge     Ge        0.322410221954226    0.763252393811107    0.982046892758404  0.0000
  Ge     Ge        0.648819626846496    0.673157835600965    0.063597891872042  0.0000
  Si     Si        0.650813417483099    0.690242076395355    0.746635107239412  0.0000
  Si     Si        0.148274828535565    0.688458940727224    0.303440000370024  0.0000
  Si     Si        0.171640815554581    0.281783500015005    0.995505629251914  0.0000
  Si     Si        0.845947898407998    0.356566707522462    0.051191085046335  0.0000
  O1     O1        0.120350947723864    0.155747696254696    0.402860736427461  0.0000
  O1     O1        0.371286715598605    0.911010727405757    0.397321970309003  0.0000
  O1     O1        0.922904160883788    0.261598943560671    0.658137012187712  0.0000
  O3     O3        0.586637094701738    0.799058181034215    0.675316138741617  0.0000
  O1     O1        0.871096143247681    0.925726983328738    0.654371461296763  0.0000
  O1     O1        0.624913700164026    0.155265758573968    0.631641745577022  0.0000
  O3     O3        0.091212230067713    0.798573395840159    0.389192303183234  0.0000
  O1     O1        0.417816224972013    0.251355012971282    0.399433721720534  0.0000
  O1     O1        0.974024916817325    0.027187632912923    0.465547675669552  0.0000
  O1     O1        0.526493872758360    0.989245787722936    0.464569612398715  0.0000
  O1     O1        0.024426070913337    0.029091843810098    0.211486924030206  0.0000
  O1     O1        0.472978159857652    0.030960200241681    0.213769735565743  0.0000
  O1     O1        0.029547428495588    0.006011524106591    0.712849237221693  0.0000
  O1     O1        0.474274897140750    0.049506526923997    0.705068104013959  0.0000
  O1     O1        0.623495523061286    0.122081924511638    0.138718071757000  0.0000
  O1     O1        0.881864076904967    0.887782545152576    0.153996295930102  0.0000
  O1     O1        0.412784916444687    0.251402297733962    0.900218232515589  0.0000
  O1     O1        0.077133528034000    0.789375247447525    0.908944625293125  0.0000
  O1     O1        0.366148812830341    0.909908349051743    0.882242038322611  0.0000
  O3     O3        0.129748244974028    0.139134741996910    0.907963459132731  0.0000
  O1     O1        0.579456894206674    0.779312813937407    0.142004016271898  0.0000
  O3     O3        0.902721243336617    0.247562438771956    0.138954679751988  0.0000
  O1     O1        0.517941910332448    0.991968327275830    0.956515955195874  0.0000
  O1     O1        0.974657443745520    0.049975976622588    0.957308120791172  0.0000
  O3     O3        0.160405585804006    0.500696897203913    0.361796454770497  0.0000
  O1     O1        0.343634142645779    0.567170537741908    0.365691329173157  0.0000
  O1     O1        0.846598943480291    0.571776265894886    0.681029196290224  0.0000
  O3     O3        0.660035016874058    0.505220544376543    0.680665674973244  0.0000
  O1     O1        0.266973775119101    0.252698952069982    0.318241760797007  0.0000
  O3     O3        0.228115620154491    0.792777831559234    0.296142301362305  0.0000
  O1     O1        0.768213334823603    0.259096143037155    0.723942729903823  0.0000
  O3     O3        0.729182643280946    0.798702507009441    0.738138962526290  0.0000
  O3     O3        0.143483334632565    0.271032109329292    0.145041010270218  0.0000
  O1     O1        0.355746414781326    0.781629561933988    0.140605672679580  0.0000
  O3     O3        0.876781921766893    0.384870579698481    0.904249029860140  0.0000
  O3     O3        0.630103204849195    0.652550796196759    0.896758227827739  0.0000
  O1     O1        0.854965959860361    0.784416233899030    0.903206915181557  0.0000
  O1     O1        0.639186739861347    0.258623659652092    0.887587246238414  0.0000
  O3     O3        0.115403424291298    0.669782337856380    0.156590634748752  0.0000
  O1     O1        0.379315039902404    0.374923688908773    0.148469214431060  0.0000
  O1     O1        0.653647431883231    0.467766392177773    0.118454779967273  0.0000
  O3     O3        0.833592192310330    0.541413681917152    0.113171452085278  0.0000
  O1     O1        0.339576123415850    0.560272587818900    0.925780102058666  0.0000
  O3     O3        0.153776290399376    0.471245440113155    0.939572181142934  0.0000
  O3     O3        0.767340005827568    0.247537205469309    0.041403828221371  0.0000
  O1     O1        0.731641341804131    0.791639892533428    0.078487216025535  0.0000
  O3     O3        0.261109505335609    0.252373479717097    0.991310590340406  0.0000
  O1     O1        0.226826825319800    0.791032187475949    0.979731146951430  0.0000
