data_c00138.vasp
_audit_creation_method             Generated by GULP
_audit_author_name                 Salvador R. G. Balestra
_symmetry_space_group_name_H-M     'P 1             '
_symmetry_Int_Tables_number        1

loop_
_symmetry_equiv_pos_site_id
_symmetry_equiv_pos_as_xyz
_cell_length_a                       17.4113
_cell_length_b                        7.7598
_cell_length_c                       10.5113
_cell_angle_alpha                   87.3621
_cell_angle_beta                    91.7596
_cell_angle_gamma                   88.1627

loop_
_atom_site_label
_atom_site_type_symbol
_atom_site_fract_x
_atom_site_fract_y
_atom_site_fract_z
_atom_site_charge
  Ge     Ge        0.052090000000021    0.000000000000000    0.372269999999958  0.0000
  Ge     Ge        0.454795302619198    0.967100970074323    0.374235765099701  0.0000
  Ge     Ge        0.940483328315704    0.060235764413152    0.609379272464751  0.0000
  Ge     Ge        0.533713995014522    0.043372934240667    0.653196139886176  0.0000
  Ge     Ge        0.563924664107681    0.000234899519889    0.134918746899324  0.0000
  Ge     Ge        0.948072683695442    0.015623484363019    0.111476762000900  0.0000
  Ge     Ge        0.437257281692836    0.033604542417559    0.910763271710303  0.0000
  Ge     Ge        0.050502209522922    0.049360520563303    0.864910537102645  0.0000
  Ge     Ge        0.155256950689865    0.305719490865011    0.280425029823990  0.0000
  Ge     Ge        0.359928284605479    0.647281427877271    0.300684698904344  0.0000
  Ge     Ge        0.846653301630678    0.372805479953912    0.712429323773555  0.0000
  Ge     Ge        0.812721448027370    0.793420533523635    0.723989992984439  0.0000
  Ge     Ge        0.659694862513310    0.317487429127602    0.715083452224637  0.0000
  Ge     Ge        0.175223178839328    0.720317524556524    0.299324475187620  0.0000
  Ge     Ge        0.672003112579815    0.290170249111952    0.027086791373659  0.0000
  Ge     Ge        0.820143152618589    0.763248888501689    0.030148695604918  0.0000
  Ge     Ge        0.171574542292785    0.766081423877610    0.993628600477404  0.0000
  Ge     Ge        0.357249838900806    0.684436398683730    0.986635402630863  0.0000
  Ge     Ge        0.137751453033043    0.362486947194182    0.978442284384858  0.0000
  Ge     Ge        0.859709802507913    0.355415352228335    0.017735515744397  0.0000
  Si     Si        0.641771870328399    0.710748862306174    0.725647571387251  0.0000
  Si     Si        0.330209201990577    0.264207712847060    0.275909867288870  0.0000
  Si     Si        0.314014254229428    0.313310954573956    0.974951922550991  0.0000
  Si     Si        0.649020969461095    0.676515237270064    0.027804630189060  0.0000
  O1     O1        0.094044295158724    0.195777424709557    0.376836841224784  0.0000
  O1     O1        0.423956358074592    0.760719581046428    0.388777200945526  0.0000
  O1     O1        0.909235628557372    0.273071033159936    0.614470768906455  0.0000
  O3     O3        0.568933454016743    0.836877579102863    0.700081095439284  0.0000
  O1     O1        0.859862782884821    0.943127392169678    0.636319143477708  0.0000
  O1     O1        0.607387239163775    0.179301255840542    0.627141487513937  0.0000
  O1     O1        0.122916935703732    0.841557690227135    0.400609336550026  0.0000
  O3     O3        0.381537029111941    0.090832074141568    0.292604757011432  0.0000
  O1     O1        0.973445860229362    0.003248628511099    0.465092896024602  0.0000
  O1     O1        0.474488815859440    0.042483600594354    0.520582992564420  0.0000
  O1     O1        0.016527877134137    0.953968156764025    0.222814729991763  0.0000
  O1     O1        0.537703557391424    0.970638915884916    0.288668546651394  0.0000
  O1     O1        0.017738483501280    0.019130279471726    0.712704223182450  0.0000
  O1     O1        0.478663586675936    0.109008491879834    0.775285996879406  0.0000
  O1     O1        0.642003288048187    0.126705263425144    0.126091103376181  0.0000
  O1     O1        0.865369527863427    0.900807446999646    0.126711209065222  0.0000
  O3     O3        0.348034385229921    0.135141611252741    0.930107531922568  0.0000
  O1     O1        0.134637312437536    0.931106425409777    0.895731025248192  0.0000
  O1     O1        0.418063064344066    0.818107872979190    0.906886948009993  0.0000
  O1     O1        0.070288440819231    0.263282814323592    0.886954902793953  0.0000
  O3     O3        0.581024318869326    0.805301518153444    0.061483826553798  0.0000
  O1     O1        0.923276470529142    0.233290163703497    0.114087304676825  0.0000
  O1     O1        0.490626212058247    0.092298153296066    0.040848564104694  0.0000
  O1     O1        0.983263898025913    0.969190163805622    0.965337379744992  0.0000
  O1     O1        0.136243123656562    0.521375276260836    0.289542882433989  0.0000
  O3     O3        0.377045993142699    0.424836712114268    0.325428438711755  0.0000
  O1     O1        0.855073300643089    0.592059110444906    0.709679100245976  0.0000
  O3     O3        0.621606909136570    0.524390299363512    0.678219460972989  0.0000
  O3     O3        0.247995443118634    0.244459294576484    0.338920508002978  0.0000
  O1     O1        0.269281253370468    0.689395139285400    0.351688623045101  0.0000
  O1     O1        0.753676280117640    0.319984767442856    0.674458736761671  0.0000
  O3     O3        0.717656981115427    0.787541660330196    0.664822047646433  0.0000
  O1     O1        0.134515713505082    0.255215807906683    0.125783438938198  0.0000
  O1     O1        0.375004984769148    0.716194995545845    0.145890643358817  0.0000
  O1     O1        0.871077029393383    0.291987948449182    0.864285001836592  0.0000
  O2     O2        0.667999575531675    0.673589616858388    0.876001177496249  0.0000
  O1     O1        0.814086580765999    0.855585036427897    0.878181550879741  0.0000
  O1     O1        0.652287590668856    0.243337693811500    0.871527084764074  0.0000
  O1     O1        0.176587895441175    0.821649182833985    0.150370489414678  0.0000
  O2     O2        0.302232407656890    0.322586197499017    0.129374293403319  0.0000
  O3     O3        0.626359685828334    0.483728055492549    0.066209200658258  0.0000
  O1     O1        0.872659271281133    0.571308095933004    0.028643835489279  0.0000
  O3     O3        0.370548616469371    0.469873894110265    0.944900244178705  0.0000
  O1     O1        0.119065791259076    0.579921923544641    0.983931023671649  0.0000
  O1     O1        0.766983576668602    0.315381200594955    0.058171315311327  0.0000
  O3     O3        0.729441910289349    0.730867052363297    0.091308373153381  0.0000
  O3     O3        0.228861807678519    0.339961353897470    0.915039365817234  0.0000
  O1     O1        0.262846231201080    0.725480220754506    0.944892513534042  0.0000
