data_c00113.vasp
_audit_creation_method             Generated by GULP
_audit_author_name                 Salvador R. G. Balestra
_symmetry_space_group_name_H-M     'P 1             '
_symmetry_Int_Tables_number        1

loop_
_symmetry_equiv_pos_site_id
_symmetry_equiv_pos_as_xyz
_cell_length_a                       17.6292
_cell_length_b                        7.9186
_cell_length_c                       10.3841
_cell_angle_alpha                   92.9676
_cell_angle_beta                    89.6619
_cell_angle_gamma                   89.4323

loop_
_atom_site_label
_atom_site_type_symbol
_atom_site_fract_x
_atom_site_fract_y
_atom_site_fract_z
_atom_site_charge
  Ge     Ge        0.052090000000021    0.000000000000000    0.372269999999958  0.0000
  Ge     Ge        0.448644138618853    0.001691603042132    0.376360920238519  0.0000
  Ge     Ge        0.948533452445113    0.960518449523348    0.626866814163692  0.0000
  Ge     Ge        0.552759051187072    0.003920293796838    0.628793548389491  0.0000
  Ge     Ge        0.544076838783140    0.036622217453558    0.112802450071799  0.0000
  Ge     Ge        0.947595930631537    0.999077462445916    0.118001206320379  0.0000
  Ge     Ge        0.435453249458503    0.975323082263681    0.863455775124692  0.0000
  Ge     Ge        0.058881182269422    0.983451119294842    0.871204305312111  0.0000
  Ge     Ge        0.158997829351625    0.293141828241985    0.297198878019403  0.0000
  Ge     Ge        0.337486609044908    0.704028182401690    0.290337431021359  0.0000
  Ge     Ge        0.827274522774150    0.255080742196811    0.741927284872240  0.0000
  Ge     Ge        0.667477425773658    0.709810447339418    0.733009787570370  0.0000
  Ge     Ge        0.850877195017512    0.653366302928647    0.730978704348182  0.0000
  Ge     Ge        0.340916054441909    0.294506643046514    0.295604725368613  0.0000
  Ge     Ge        0.645235854478748    0.347605452522398    0.054608236889303  0.0000
  Ge     Ge        0.848348417381575    0.679562699956203    0.044805382604076  0.0000
  Ge     Ge        0.153225044011610    0.665991726333312    0.981448298696448  0.0000
  Ge     Ge        0.340454036081655    0.667115550946645    0.976159279306388  0.0000
  Ge     Ge        0.666869252674909    0.747733469681733    0.043530057772061  0.0000
  Ge     Ge        0.824900027782811    0.280805923173742    0.057264169738228  0.0000
  Si     Si        0.649591454911535    0.317004791224451    0.744994271040058  0.0000
  Si     Si        0.158355846987370    0.695915651475234    0.289008014083300  0.0000
  Si     Si        0.338891563049507    0.279292365178525    0.996000708658344  0.0000
  Si     Si        0.157365473081104    0.280000480934638    0.999318393157081  0.0000
  O1     O1        0.105861044709159    0.178919746517955    0.399366587548039  0.0000
  O1     O1        0.389372043925895    0.832412684996891    0.391964854039817  0.0000
  O1     O1        0.872656521524107    0.093594485902450    0.658459234607875  0.0000
  O1     O1        0.615889030690373    0.840185488212618    0.639223856009586  0.0000
  O1     O1        0.917179967821448    0.758932459314022    0.645353399953474  0.0000
  O3     O3        0.589564238019644    0.200316588341467    0.669250199880174  0.0000
  O3     O3        0.106226776675368    0.816772647537204    0.381344227722049  0.0000
  O1     O1        0.397054348964760    0.186174254403733    0.396715786372877  0.0000
  O1     O1        0.975047753659951    0.988092875642892    0.469677232529891  0.0000
  O1     O1        0.527529215577287    0.001897403534061    0.468178886819393  0.0000
  O1     O1        0.022634025780645    0.021887664318688    0.216720692784077  0.0000
  O1     O1        0.474084437440724    0.988796989559707    0.214865386310219  0.0000
  O1     O1        0.029096995943881    0.002363040898606    0.715573372188633  0.0000
  O1     O1        0.467602827291359    0.982169434136040    0.707767246560320  0.0000
  O1     O1        0.577280441190019    0.240630611138014    0.133841654291095  0.0000
  O1     O1        0.909649185837365    0.801938477224368    0.133718101553934  0.0000
  O3     O3        0.364028930253147    0.124254123002470    0.901654444321262  0.0000
  O1     O1        0.095274514664857    0.784747663823363    0.891059449182207  0.0000
  O1     O1        0.395554311283583    0.781013573979568    0.877791822132341  0.0000
  O3     O3        0.131827716861034    0.125224890104518    0.906395299031181  0.0000
  O1     O1        0.619772849055084    0.900326125067621    0.132899830209109  0.0000
  O1     O1        0.877222021203081    0.149100098340813    0.147181421025737  0.0000
  O1     O1        0.513969216023076    0.010051861354534    0.955440078596665  0.0000
  O1     O1        0.979036727337790    0.020894724015320    0.961880610946979  0.0000
  O3     O3        0.157198899046829    0.507604921463628    0.339296297540986  0.0000
  O1     O1        0.344689790137920    0.503612507178971    0.342258075586560  0.0000
  O1     O1        0.845651996884820    0.445423126823795    0.676099000514687  0.0000
  O3     O3        0.656961070186155    0.497823605683183    0.682423787645142  0.0000
  O1     O1        0.250313028223996    0.220758772244777    0.306754022937671  0.0000
  O3     O3        0.243196672798770    0.766949151353440    0.290381698876840  0.0000
  O3     O3        0.730307924665615    0.219767450919232    0.740543893749795  0.0000
  O1     O1        0.762825366587303    0.749055055058551    0.722928600376754  0.0000
  O3     O3        0.122906877591529    0.264238182789120    0.141413549259450  0.0000
  O1     O1        0.367141542446823    0.710835761516082    0.132672582905806  0.0000
  O1     O1        0.855384263651906    0.262537801994605    0.899423352485376  0.0000
  O1     O1        0.634245668505827    0.745566905066480    0.886956334525189  0.0000
  O1     O1        0.880736540897108    0.657365063646158    0.888295578826922  0.0000
  O3     O3        0.623202328068207    0.351673358253450    0.892044659070445  0.0000
  O3     O3        0.128552201493428    0.699405357755836    0.142510291904373  0.0000
  O3     O3        0.375208970514380    0.262967820813202    0.136760226333380  0.0000
  O1     O1        0.652100386220941    0.553533581721593    0.108866818051865  0.0000
  O1     O1        0.837414663822725    0.488731804950808    0.110843448519571  0.0000
  O3     O3        0.360902465272187    0.455023865912862    0.936999535121753  0.0000
  O3     O3        0.133648225916647    0.455346518135950    0.939558530810554  0.0000
  O1     O1        0.729996448831883    0.240173466413053    0.068009188659283  0.0000
  O1     O1        0.762206036350868    0.783725536216553    0.038104600592736  0.0000
  O2     O2        0.248190610407234    0.290380817252593    0.023841022128641  0.0000
  O1     O1        0.246171829311987    0.713068285469107    0.954317132739724  0.0000
