data_c00155.vasp
_audit_creation_method             Generated by GULP
_audit_author_name                 Salvador R. G. Balestra
_symmetry_space_group_name_H-M     'P 1             '
_symmetry_Int_Tables_number        1

loop_
_symmetry_equiv_pos_site_id
_symmetry_equiv_pos_as_xyz
_cell_length_a                       17.6547
_cell_length_b                        7.8773
_cell_length_c                       10.3842
_cell_angle_alpha                   91.0920
_cell_angle_beta                    89.5832
_cell_angle_gamma                   90.1919

loop_
_atom_site_label
_atom_site_type_symbol
_atom_site_fract_x
_atom_site_fract_y
_atom_site_fract_z
_atom_site_charge
  Ge     Ge        0.052090000000021    0.000000000000000    0.372269999999958  0.0000
  Ge     Ge        0.447967625631007    0.018025000369733    0.344691178210590  0.0000
  Ge     Ge        0.951266826945106    0.034266767514171    0.629497215366876  0.0000
  Ge     Ge        0.552818762403613    0.996792109615933    0.595924239846128  0.0000
  Ge     Ge        0.547492858475525    0.989614106659771    0.081087693484685  0.0000
  Ge     Ge        0.942427982853416    0.032406403289353    0.131142590322349  0.0000
  Ge     Ge        0.437609091681794    0.999411482236386    0.833550359663747  0.0000
  Ge     Ge        0.053861792133349    0.973667781124632    0.886958733331559  0.0000
  Ge     Ge        0.163018975557839    0.295374690182666    0.267280004187661  0.0000
  Ge     Ge        0.331373384477685    0.729610884844517    0.252797382518701  0.0000
  Ge     Ge        0.851129559193394    0.352882404302237    0.691111740975147  0.0000
  Ge     Ge        0.827405467728715    0.753584526759473    0.706242889290497  0.0000
  Ge     Ge        0.669508126368429    0.292807939318380    0.696697987471214  0.0000
  Ge     Ge        0.344398373911281    0.317687178303579    0.269625392319871  0.0000
  Ge     Ge        0.671417798598649    0.268730472897134    0.008792591281394  0.0000
  Ge     Ge        0.824984824915207    0.749070528432553    0.018525337283933  0.0000
  Ge     Ge        0.153815498232825    0.657065157522926    0.935386996758124  0.0000
  Ge     Ge        0.339210057791809    0.684780025026819    0.937048342789708  0.0000
  Ge     Ge        0.646342192995687    0.670898104971916    0.015500635052794  0.0000
  Ge     Ge        0.851381417280228    0.344669551169530    0.006726540969136  0.0000
  Si     Si        0.649654741065389    0.687694928136450    0.709813031836181  0.0000
  Si     Si        0.154193231123885    0.698313099274848    0.246236165083138  0.0000
  Si     Si        0.340394337150451    0.294859725489051    0.969948828761176  0.0000
  Si     Si        0.158733321289452    0.273636711491933    0.970119825288239  0.0000
  O1     O1        0.110243990009977    0.173882900303731    0.368461784917290  0.0000
  O1     O1        0.380328821339293    0.860959495277985    0.353862213137986  0.0000
  O1     O1        0.916135018808641    0.234448748743573    0.605441472213816  0.0000
  O3     O3        0.589235587227261    0.802159920124456    0.637443117224523  0.0000
  O1     O1        0.874688549615968    0.898314722429377    0.616722323486419  0.0000
  O1     O1        0.617645812643838    0.157931494348889    0.600692573350047  0.0000
  O3     O3        0.093814047115103    0.811494310844429    0.323833862232163  0.0000
  O1     O1        0.404027286516828    0.210771059436025    0.368690571699709  0.0000
  O1     O1        0.024330934342335    0.978711083012373    0.530847130592062  0.0000
  O1     O1        0.524584537874119    0.982672820358020    0.437217903990712  0.0000
  O1     O1        0.970612388597018    0.035565732818963    0.288762957995857  0.0000
  O1     O1        0.475516305226597    0.020888828042910    0.185009434080466  0.0000
  O1     O1        0.983706954569578    0.028828067415474    0.786504814933582  0.0000
  O1     O1        0.470352265710726    0.036398380239464    0.680497477388407  0.0000
  O1     O1        0.622599379447968    0.128135240247248    0.100561970639920  0.0000
  O1     O1        0.867036192187030    0.895539050456152    0.117214671349961  0.0000
  O3     O3        0.366413219859091    0.141955113520045    0.878413640243273  0.0000
  O1     O1        0.094470342808972    0.780917576484598    0.848674728982301  0.0000
  O1     O1        0.395883616414322    0.802907624037956    0.839578710473806  0.0000
  O3     O3        0.130483544753095    0.117140958464578    0.885425648297871  0.0000
  O1     O1        0.578765315770529    0.783734830068310    0.096809710586920  0.0000
  O1     O1        0.917977809848707    0.234812497534477    0.088721906551452  0.0000
  O1     O1        0.516397926142727    0.019516570053443    0.926131984861949  0.0000
  O1     O1        0.016990855119597    0.961124514409562    0.039136866196347  0.0000
  O3     O3        0.156894844026368    0.510196681531969    0.304146556319308  0.0000
  O1     O1        0.344564571893110    0.528104561985348    0.307901499624497  0.0000
  O1     O1        0.844565086441725    0.556045159769822    0.638311175474272  0.0000
  O3     O3        0.658652761813325    0.501278559140351    0.645590485850822  0.0000
  O1     O1        0.254930970672431    0.234369805950012    0.284048657004637  0.0000
  O3     O3        0.236519873432962    0.784223058780837    0.258529190700020  0.0000
  O1     O1        0.764451538000826    0.251260209254530    0.685405433704890  0.0000
  O3     O3        0.730084075474329    0.785954573578252    0.709387452235689  0.0000
  O3     O3        0.125512590295828    0.256362573299366    0.114565110974051  0.0000
  O1     O1        0.359580447032022    0.741017791808508    0.094069338849407  0.0000
  O1     O1        0.878655461742996    0.366655262836033    0.849585772203311  0.0000
  O3     O3        0.620963336424538    0.656678381058923    0.854128462759432  0.0000
  O1     O1        0.858693067653383    0.767619105873886    0.862896140063755  0.0000
  O1     O1        0.639987633937916    0.262384821096776    0.852009425670823  0.0000
  O3     O3        0.132781892024765    0.687009780223992    0.097080897348143  0.0000
  O3     O3        0.376122330167163    0.286128701815358    0.110762841533614  0.0000
  O1     O1        0.656196279248590    0.471331663340655    0.071793059180558  0.0000
  O1     O1        0.839653454753302    0.545247766189987    0.070743609936223  0.0000
  O3     O3        0.362135172849104    0.473185208580756    0.907764317950502  0.0000
  O3     O3        0.133887848581691    0.445673599569954    0.901383455617136  0.0000
  O1     O1        0.766991982189143    0.232883708478355    0.010349183150713  0.0000
  O1     O1        0.729392257148723    0.784246590837668    0.021067648341334  0.0000
  O2     O2        0.249161254703498    0.295113615528743    0.993991663377892  0.0000
  O1     O1        0.245362279224257    0.714327672046658    0.903565910383062  0.0000
