data_c00127.vasp
_audit_creation_method             Generated by GULP
_audit_author_name                 Salvador R. G. Balestra
_symmetry_space_group_name_H-M     'P 1             '
_symmetry_Int_Tables_number        1

loop_
_symmetry_equiv_pos_site_id
_symmetry_equiv_pos_as_xyz
_cell_length_a                       17.9353
_cell_length_b                        7.8045
_cell_length_c                       10.2794
_cell_angle_alpha                   89.7297
_cell_angle_beta                    90.0003
_cell_angle_gamma                   90.0008

loop_
_atom_site_label
_atom_site_type_symbol
_atom_site_fract_x
_atom_site_fract_y
_atom_site_fract_z
_atom_site_charge
  Ge     Ge        0.052090000000021    0.000000000000000    0.372269999999958  0.0000
  Ge     Ge        0.441699820371992    0.038272801353602    0.415270020888699  0.0000
  Ge     Ge        0.941699175620951    0.001562072595043    0.620824420148075  0.0000
  Ge     Ge        0.552086921647665    0.039815818867626    0.663831250678154  0.0000
  Ge     Ge        0.551237632153558    0.033348561485221    0.167656904595448  0.0000
  Ge     Ge        0.947408777557581    0.008085316136740    0.118053346385860  0.0000
  Ge     Ge        0.447408969420920    0.031723755830651    0.918054885134519  0.0000
  Ge     Ge        0.051235219501835    0.006429467571351    0.868442618534375  0.0000
  Ge     Ge        0.168446130819873    0.291025881449348    0.303219958107460  0.0000
  Ge     Ge        0.326354395101375    0.745245699037540    0.301396249801834  0.0000
  Ge     Ge        0.826355255658938    0.294581806984150    0.734690657902052  0.0000
  Ge     Ge        0.668439184654090    0.748786388986567    0.732895812089386  0.0000
  Ge     Ge        0.647502247240670    0.345424761735493    0.045246999662035  0.0000
  Ge     Ge        0.846856746696491    0.692483342606651    0.045158040889049  0.0000
  Ge     Ge        0.346856993954415    0.347332706967103    0.990946329127077  0.0000
  Ge     Ge        0.147499579600040    0.694363448955179    0.990843549467458  0.0000
  Ge     Ge        0.323905445485604    0.757537474484507    0.984972877218727  0.0000
  Ge     Ge        0.170428012983925    0.282733932878863    0.987904548775546  0.0000
  Ge     Ge        0.670423967480543    0.757044608042712    0.048205985957636  0.0000
  Ge     Ge        0.823906079009509    0.282265955902774    0.051117421744077  0.0000
  Si     Si        0.843605801661484    0.695483326120021    0.734695538041837  0.0000
  Si     Si        0.651730640311159    0.349179832468857    0.732932663802214  0.0000
  Si     Si        0.151725891011899    0.690640998787535    0.303147888710900  0.0000
  Si     Si        0.343608950928099    0.344360259717425    0.301420403119804  0.0000
  O1     O1        0.117787996637610    0.156944283090150    0.400947894800394  0.0000
  O1     O1        0.377204466943458    0.877809395429381    0.398362629209025  0.0000
  O1     O1        0.877213397059707    0.162046181272173    0.637720431202840  0.0000
  O1     O1        0.617784443610647    0.882872400162409    0.635166441083601  0.0000
  O3     O3        0.901510555704759    0.804326387172362    0.650330425168798  0.0000
  O3     O3        0.594534955356196    0.238584483869701    0.648251860487160  0.0000
  O3     O3        0.094538976509785    0.801234410989442    0.387846676911240  0.0000
  O3     O3        0.401525479625612    0.235522603550860    0.385762448238591  0.0000
  O1     O1        0.972775223302523    0.008795520891874    0.462575363245515  0.0000
  O1     O1        0.472775408252072    0.031020190349305    0.573518703341030  0.0000
  O1     O1        0.023211113297143    0.032306217164886    0.214171958927245  0.0000
  O1     O1        0.521906841112317    0.017496303394903    0.326127985313792  0.0000
  O1     O1        0.021905807047497    0.022325676400763    0.709970738349208  0.0000
  O1     O1        0.523207257009226    0.007520594235844    0.821927208967598  0.0000
  O1     O1        0.579308444692746    0.238388721941672    0.126802452592010  0.0000
  O1     O1        0.913290956811844    0.802152220021054    0.128768046351094  0.0000
  O1     O1        0.413299931080070    0.237666096825216    0.907363516500783  0.0000
  O1     O1        0.079310919369599    0.801378185360888    0.909254416149030  0.0000
  O1     O1        0.375042839898298    0.891631755918816    0.888937687320423  0.0000
  O1     O1        0.124401916390071    0.144924481308783    0.888272991247353  0.0000
  O1     O1        0.624399042779582    0.894842875965699    0.147849622434547  0.0000
  O1     O1        0.875046483560097    0.148187639276588    0.147156242512970  0.0000
  O1     O1        0.475729129570235    0.983609257866888    0.074322932684031  0.0000
  O1     O1        0.975728644247405    0.056166147518602    0.961779158919995  0.0000
  O3     O3        0.156823581506990    0.499241457346183    0.358540653178218  0.0000
  O3     O3        0.337808643273280    0.535833809632074    0.355872266842848  0.0000
  O3     O3        0.837806049769900    0.504008955657339    0.680248375270333  0.0000
  O3     O3        0.656821999484928    0.540583496318306    0.677545024177467  0.0000
  O3     O3        0.263419777788569    0.250251771316752    0.305981225036905  0.0000
  O3     O3        0.231510587798267    0.786237308577479    0.306897861740667  0.0000
  O3     O3        0.731512536572576    0.253579866766130    0.729161402269470  0.0000
  O3     O3        0.763412922124659    0.789569571069838    0.730157176553906  0.0000
  O1     O1        0.139082306755938    0.266320975529627    0.145654895577003  0.0000
  O1     O1        0.354083741330439    0.771282167233255    0.144062598182222  0.0000
  O1     O1        0.854079276880487    0.268524203408091    0.892025991227616  0.0000
  O1     O1        0.639070750295139    0.773475875225063    0.890459794611774  0.0000
  O3     O3        0.872800400028033    0.685487337906196    0.882307804405542  0.0000
  O3     O3        0.624085452525941    0.358470354042161    0.881838427854683  0.0000
  O3     O3        0.124062566401327    0.681370928405528    0.154249850515489  0.0000
  O3     O3        0.372786738585299    0.354387090577510    0.153799980257076  0.0000
  O1     O1        0.657052427205992    0.549440215660814    0.101953363469119  0.0000
  O1     O1        0.836634076759435    0.489981675782486    0.103750484353490  0.0000
  O1     O1        0.336632248346487    0.549824527658893    0.932331627665980  0.0000
  O1     O1        0.157054757869225    0.490338121185935    0.934157280216416  0.0000
  O1     O1        0.730602417179709    0.236728168347853    0.059531615458997  0.0000
  O1     O1        0.763909819516459    0.801790424354811    0.052695969355573  0.0000
  O1     O1        0.263914629690006    0.237999407421495    0.983406314419931  0.0000
  O1     O1        0.230600970474700    0.803064077746853    0.976568786086684  0.0000
