data_c00107.vasp
_audit_creation_method             Generated by GULP
_audit_author_name                 Salvador R. G. Balestra
_symmetry_space_group_name_H-M     'P 1             '
_symmetry_Int_Tables_number        1

loop_
_symmetry_equiv_pos_site_id
_symmetry_equiv_pos_as_xyz
_cell_length_a                       17.4974
_cell_length_b                        7.7068
_cell_length_c                       10.6223
_cell_angle_alpha                   91.8626
_cell_angle_beta                    89.0053
_cell_angle_gamma                   88.6452

loop_
_atom_site_label
_atom_site_type_symbol
_atom_site_fract_x
_atom_site_fract_y
_atom_site_fract_z
_atom_site_charge
  Ge     Ge        0.052090000000021    0.000000000000000    0.372269999999958  0.0000
  Ge     Ge        0.451346738286345    0.979970347740728    0.360627333190275  0.0000
  Ge     Ge        0.968353425204890    0.945494620125024    0.638280247637557  0.0000
  Ge     Ge        0.558277108808907    0.944753568412157    0.606152035347992  0.0000
  Ge     Ge        0.547189784333399    0.965692135855929    0.096999602422455  0.0000
  Ge     Ge        0.935344264994336    0.978149333119667    0.142767426819287  0.0000
  Ge     Ge        0.443365152855636    0.943697120986976    0.849920130534479  0.0000
  Ge     Ge        0.056144789355134    0.961407932652457    0.908793965387970  0.0000
  Ge     Ge        0.142633373026837    0.327210758874552    0.291192929974554  0.0000
  Ge     Ge        0.350536086776199    0.670138523635633    0.265720835473912  0.0000
  Ge     Ge        0.860031564775093    0.269940446183808    0.718433438310057  0.0000
  Ge     Ge        0.653486803411094    0.623752371811678    0.709751758911384  0.0000
  Ge     Ge        0.836695648095693    0.688795630755323    0.718511809270427  0.0000
  Ge     Ge        0.326549124439870    0.253431082544364    0.281526406410593  0.0000
  Ge     Ge        0.676442774165567    0.223348897975005    0.015650899609307  0.0000
  Ge     Ge        0.823111617668469    0.701374244446011    0.020479803448272  0.0000
  Ge     Ge        0.324073155434029    0.222425575614632    0.979547179728491  0.0000
  Ge     Ge        0.356866683395020    0.629957800761917    0.966222176332062  0.0000
  Ge     Ge        0.139424265179589    0.306895601205935    0.980668136403954  0.0000
  Ge     Ge        0.640251761835552    0.631626374000857    0.013474200581522  0.0000
  Si     Si        0.681625397808368    0.217287711017188    0.714052732328177  0.0000
  Si     Si        0.175903059292197    0.712972613671802    0.269476015677798  0.0000
  Si     Si        0.181540017379230    0.682260450296676    0.970815472552543  0.0000
  Si     Si        0.853110971201112    0.289026406136502    0.018007101750744  0.0000
  O1     O1        0.079958800562273    0.211728711743253    0.379806183273535  0.0000
  O1     O1        0.414337785451334    0.776567430819384    0.359685108622626  0.0000
  O1     O1        0.930553122988573    0.154016215647462    0.638921894385529  0.0000
  O1     O1        0.592370949811598    0.734783697383080    0.614974772134284  0.0000
  O1     O1        0.890809842374845    0.813723489285518    0.623899939613010  0.0000
  O3     O3        0.634477471175217    0.078247169999199    0.635660307807992  0.0000
  O3     O3        0.127388668922080    0.888722644037925    0.292360752547751  0.0000
  O1     O1        0.377251553171198    0.128895701821820    0.383398702195124  0.0000
  O1     O1        0.034968327300116    0.922240344860238    0.518399335226229  0.0000
  O1     O1        0.527179262098502    0.990416126660508    0.458725743898269  0.0000
  O1     O1        0.968005437721630    0.979580958205840    0.292818516213631  0.0000
  O1     O1        0.486153371959286    0.033301005637393    0.213479931620751  0.0000
  O1     O1        0.014051251090937    0.892895174389004    0.773800295375531  0.0000
  O1     O1        0.478759533711697    0.976350843835904    0.701506654286170  0.0000
  O1     O1        0.632205790565728    0.076371960721237    0.102746719175303  0.0000
  O1     O1        0.860794766543370    0.838597199281030    0.130777988633483  0.0000
  O1     O1        0.360700615051826    0.064555379758222    0.878395156237922  0.0000
  O3     O3        0.145581834238496    0.861462055030876    0.929689855211970  0.0000
  O1     O1        0.420961495508355    0.729794795946653    0.870380453875642  0.0000
  O1     O1        0.076240357027095    0.178118414941132    0.902150976423704  0.0000
  O1     O1        0.572584551912222    0.748658377410063    0.101419053807928  0.0000
  O3     O3        0.912127242203316    0.190974820654552    0.105931634816898  0.0000
  O1     O1        0.510309880895302    0.015965807725243    0.953971240040238  0.0000
  O1     O1        0.004694541699965    0.902629440785294    0.037869374891003  0.0000
  O3     O3        0.128341657403948    0.551142551973719    0.317826205713718  0.0000
  O1     O1        0.367754706811457    0.452335678467978    0.270811764237651  0.0000
  O1     O1        0.854599753124932    0.475897809151749    0.669102769168884  0.0000
  O3     O3        0.668231063082291    0.409365789412441    0.660222562296820  0.0000
  O1     O1        0.234257054919165    0.284151075038366    0.336123225227023  0.0000
  O3     O3        0.259521431880603    0.727004075529836    0.327737929366108  0.0000
  O3     O3        0.771954128250662    0.170842116249721    0.705965567249734  0.0000
  O1     O1        0.740135720485402    0.724606729613539    0.709733306698487  0.0000
  O1     O1        0.124516872666699    0.266695885569665    0.137679598304746  0.0000
  O1     O1        0.366610914580715    0.730581488278196    0.112989549620518  0.0000
  O3     O3        0.885788185795124    0.271708334845992    0.875723551979657  0.0000
  O1     O1        0.612902976975354    0.635889913376649    0.858178283589770  0.0000
  O1     O1        0.862138141375423    0.728244223892142    0.873137349439002  0.0000
  O3     O3        0.652355583046053    0.220685850881474    0.858103285952271  0.0000
  O2     O2        0.198158882420327    0.664361046682457    0.121911007152926  0.0000
  O1     O1        0.323080670803660    0.157080577578585    0.133202661430130  0.0000
  O1     O1        0.650158020075970    0.429493900926362    0.070990719997324  0.0000
  O3     O3        0.839454347105761    0.486764088254458    0.062516458623354  0.0000
  O1     O1        0.375503028871609    0.411561651661358    0.970953042676359  0.0000
  O3     O3        0.124985693514807    0.523918512132580    0.941746489107109  0.0000
  O3     O3        0.773714751884544    0.187223030378550    0.024009071356756  0.0000
  O1     O1        0.726775808267361    0.734540072405569    0.014925051281234  0.0000
  O1     O1        0.232303952763464    0.265654096130000    0.935646667724589  0.0000
  O3     O3        0.264940230359628    0.659333349074520    0.908138240532550  0.0000
