data_c00143.vasp
_audit_creation_method             Generated by GULP
_audit_author_name                 Salvador R. G. Balestra
_symmetry_space_group_name_H-M     'P 1             '
_symmetry_Int_Tables_number        1

loop_
_symmetry_equiv_pos_site_id
_symmetry_equiv_pos_as_xyz
_cell_length_a                       17.6460
_cell_length_b                        7.8391
_cell_length_c                       10.2334
_cell_angle_alpha                   88.4343
_cell_angle_beta                    91.1516
_cell_angle_gamma                   88.5225

loop_
_atom_site_label
_atom_site_type_symbol
_atom_site_fract_x
_atom_site_fract_y
_atom_site_fract_z
_atom_site_charge
  Ge     Ge        0.052090000000021    0.000000000000000    0.372269999999958  0.0000
  Ge     Ge        0.449592727712858    0.954934486074530    0.366005128124741  0.0000
  Ge     Ge        0.941610599624251    0.960452909671562    0.615607774217858  0.0000
  Ge     Ge        0.549119649590736    0.005343052288831    0.627163038509153  0.0000
  Ge     Ge        0.553966025639460    0.991441887608208    0.111059475108023  0.0000
  Ge     Ge        0.952667542792647    0.929455683570384    0.113513472832495  0.0000
  Ge     Ge        0.440101254690903    0.951223329314805    0.866301613010721  0.0000
  Ge     Ge        0.053535084462911    0.010746330651731    0.861878812289895  0.0000
  Ge     Ge        0.151913531078485    0.314077083990988    0.304134826680579  0.0000
  Ge     Ge        0.353512999585434    0.638676985919095    0.295383290409402  0.0000
  Ge     Ge        0.822308761818315    0.244748550211836    0.724713435722962  0.0000
  Ge     Ge        0.846369094191069    0.644355480115046    0.736639546269110  0.0000
  Ge     Ge        0.641430734066895    0.320921243091328    0.738735814804957  0.0000
  Ge     Ge        0.172940611938417    0.715713730766961    0.298902874149362  0.0000
  Ge     Ge        0.852789098202525    0.618716097214222    0.059010108985003  0.0000
  Ge     Ge        0.324835275866350    0.245873989593889    0.986763687954576  0.0000
  Ge     Ge        0.172463016519522    0.722133132518340    0.982446084349280  0.0000
  Ge     Ge        0.144269434073753    0.321397267427375    0.983845020372017  0.0000
  Ge     Ge        0.673423620852842    0.694494378048536    0.053968756053817  0.0000
  Ge     Ge        0.828684236054289    0.220530363247462    0.040543363149132  0.0000
  Si     Si        0.668843503572323    0.716860915844610    0.742217791995049  0.0000
  Si     Si        0.328667552422616    0.240381494587413    0.297494330834749  0.0000
  Si     Si        0.651485295534844    0.300142414704962    0.046013833697566  0.0000
  Si     Si        0.350443313249262    0.643530469908895    0.988746927894230  0.0000
  O1     O1        0.090119773794590    0.196713421803172    0.394109712271539  0.0000
  O1     O1        0.415857555824660    0.751652046083305    0.386546199557688  0.0000
  O1     O1        0.867385621703195    0.102484941465601    0.626914799774680  0.0000
  O3     O3        0.624196453051123    0.864432206814364    0.660049539979190  0.0000
  O1     O1        0.911906768246355    0.759569120670831    0.654747643989281  0.0000
  O1     O1        0.574283138554269    0.212055216607080    0.655171035120375  0.0000
  O1     O1        0.124186806996305    0.850246249316502    0.397259326006797  0.0000
  O3     O3        0.376794386416119    0.105575488756660    0.387211683685461  0.0000
  O1     O1        0.972012471823816    0.962609931770730    0.456081170257793  0.0000
  O1     O1        0.526155582346581    0.990063467602307    0.463461154455165  0.0000
  O1     O1        0.026859217923879    0.985930701758774    0.207999511598729  0.0000
  O1     O1        0.477126112965438    0.973900562063853    0.205769444596832  0.0000
  O1     O1        0.021796280316701    0.013184472047010    0.702194256990177  0.0000
  O1     O1        0.467387039461969    0.955878483334827    0.706044147141774  0.0000
  O3     O3        0.597757751002128    0.185327533815593    0.133691882501096  0.0000
  O1     O1        0.920852444099016    0.726046460940044    0.142360211620343  0.0000
  O1     O1        0.372490515621026    0.107784836520026    0.890982231761443  0.0000
  O1     O1        0.132976998850838    0.880227310916222    0.883758901571615  0.0000
  O3     O3        0.406753577894597    0.749202785067157    0.899275311685861  0.0000
  O1     O1        0.075649250267523    0.215695787024960    0.901281151211800  0.0000
  O1     O1        0.619154023709032    0.827199584786604    0.143963068708037  0.0000
  O1     O1        0.874816449656514    0.064717629450813    0.130675012328586  0.0000
  O1     O1        0.522300209710689    0.986697059498806    0.951472689706364  0.0000
  O1     O1        0.980322840823497    0.936969738705255    0.952728585458818  0.0000
  O1     O1        0.159972227730390    0.512605595239262    0.363281838579140  0.0000
  O3     O3        0.342635617315574    0.430607214763006    0.349198627388893  0.0000
  O1     O1        0.838450580197971    0.448916645410195    0.668147593811638  0.0000
  O3     O3        0.650743930202089    0.531351966600101    0.685369673706413  0.0000
  O3     O3        0.239512862930821    0.206011171087777    0.302371007935332  0.0000
  O1     O1        0.268307439752629    0.748871376345795    0.299439096255849  0.0000
  O1     O1        0.726605018588594    0.214847635094376    0.721751787375649  0.0000
  O3     O3        0.758296818547966    0.749387668707513    0.734720492953645  0.0000
  O1     O1        0.120027593540642    0.334092687417866    0.144800035253917  0.0000
  O3     O3        0.384566989827651    0.632265339217058    0.135744989595947  0.0000
  O1     O1        0.858823228306353    0.214959874125863    0.881365089523280  0.0000
  O3     O3        0.643697643256516    0.720928766087292    0.892230191132963  0.0000
  O1     O1        0.874633309850110    0.611191023713274    0.895915569078287  0.0000
  O3     O3        0.615648350721899    0.326069973944502    0.900635178032869  0.0000
  O1     O1        0.139299729677006    0.734965627978340    0.139141820587244  0.0000
  O3     O3        0.355463857772254    0.225229535663625    0.148107889121844  0.0000
  O3     O3        0.663409004381157    0.483154012504736    0.107122218501698  0.0000
  O1     O1        0.847509116115928    0.411940645267765    0.112499103109871  0.0000
  O3     O3        0.339384379343276    0.455735936828593    0.934567973563051  0.0000
  O1     O1        0.151331387371606    0.525963737862074    0.922104943674751  0.0000
  O3     O3        0.731594583268435    0.198184937056016    0.032253193814840  0.0000
  O1     O1        0.767806701840553    0.731342856915716    0.070519213945125  0.0000
  O1     O1        0.229840913169734    0.211826829411832    0.973890055139318  0.0000
  O3     O3        0.269613741372277    0.743850490584573    0.991787885748304  0.0000
