data_c00109.vasp
_audit_creation_method             Generated by GULP
_audit_author_name                 Salvador R. G. Balestra
_symmetry_space_group_name_H-M     'P 1             '
_symmetry_Int_Tables_number        1

loop_
_symmetry_equiv_pos_site_id
_symmetry_equiv_pos_as_xyz
_cell_length_a                       17.7998
_cell_length_b                        7.7653
_cell_length_c                       10.5129
_cell_angle_alpha                   91.2662
_cell_angle_beta                    89.8571
_cell_angle_gamma                   90.0075

loop_
_atom_site_label
_atom_site_type_symbol
_atom_site_fract_x
_atom_site_fract_y
_atom_site_fract_z
_atom_site_charge
  Ge     Ge        0.052090000000021    0.000000000000000    0.372269999999958  0.0000
  Ge     Ge        0.448912856504159    0.032421066274874    0.370708479970410  0.0000
  Ge     Ge        0.952335788854200    0.965358202949967    0.630688821302628  0.0000
  Ge     Ge        0.553267795396442    0.004804903532365    0.621776641248188  0.0000
  Ge     Ge        0.543530778492154    0.027559553646740    0.107547869996253  0.0000
  Ge     Ge        0.946411315284517    0.004864739763309    0.119983724460975  0.0000
  Ge     Ge        0.437719151051908    0.023785471297953    0.856786587636863  0.0000
  Ge     Ge        0.056564701656582    0.999270257907128    0.880930359526451  0.0000
  Ge     Ge        0.170637399797898    0.282092546908126    0.289420832683695  0.0000
  Ge     Ge        0.325260111394685    0.756988400560158    0.293143354062894  0.0000
  Ge     Ge        0.826531906112915    0.250275640350270    0.743186394797683  0.0000
  Ge     Ge        0.671265875514551    0.717047354705607    0.725467704808744  0.0000
  Ge     Ge        0.851537658034086    0.657233088589620    0.726350425539997  0.0000
  Ge     Ge        0.350131352262721    0.342688571295461    0.285318196325573  0.0000
  Ge     Ge        0.644386330420829    0.344469308968462    0.045326498577024  0.0000
  Ge     Ge        0.848698404141586    0.683544454263031    0.037327941551273  0.0000
  Ge     Ge        0.346477533169071    0.343846677178679    0.975726373692590  0.0000
  Ge     Ge        0.319965675462702    0.753970856338091    0.981551264200290  0.0000
  Ge     Ge        0.670193091097319    0.754351038822905    0.032814573896869  0.0000
  Ge     Ge        0.820843559511556    0.276738944441020    0.055438673649207  0.0000
  Si     Si        0.651883119806213    0.314201886009179    0.739722816952859  0.0000
  Si     Si        0.151072766062469    0.689764901133286    0.296119067444920  0.0000
  Si     Si        0.144809423984877    0.685891718437972    0.998338041920011  0.0000
  Si     Si        0.167933373869580    0.286777534005278    0.990101810151638  0.0000
  O1     O1        0.120808373275608    0.155277371780249    0.389403920732369  0.0000
  O1     O1        0.375173000691892    0.891165173881057    0.391477709350949  0.0000
  O1     O1        0.875465740249950    0.091421014456041    0.667016711098166  0.0000
  O1     O1        0.617199254115990    0.841526542572676    0.628687772187037  0.0000
  O1     O1        0.919219533818001    0.758825262715479    0.639161679260184  0.0000
  O3     O3        0.590258586002985    0.203177946326045    0.664438102534840  0.0000
  O3     O3        0.090594919035819    0.794445551934921    0.379492046919871  0.0000
  O1     O1        0.413370359361778    0.237345698766426    0.378313879341900  0.0000
  O1     O1        0.980783382803035    0.013752154841449    0.479279085928699  0.0000
  O1     O1        0.524887555635610    0.009639609900125    0.465503360708601  0.0000
  O1     O1        0.017306030690666    0.039570300697909    0.223949524977562  0.0000
  O1     O1        0.476787400210942    0.984910688176350    0.216218241453154  0.0000
  O1     O1        0.030237417548706    0.997496104922644    0.724503433769236  0.0000
  O1     O1        0.471380133500123    0.980382064926863    0.706741507007705  0.0000
  O1     O1        0.573254795184362    0.239115611690021    0.119803092136741  0.0000
  O1     O1        0.911710946417228    0.799138843027336    0.126926833745421  0.0000
  O1     O1        0.406444616338844    0.232451162014533    0.877838521895840  0.0000
  O3     O3        0.083217565729262    0.791836476171828    0.923791163346594  0.0000
  O1     O1        0.359269481238891    0.900766392214955    0.885031455147695  0.0000
  O3     O3        0.125736690830097    0.155172955169228    0.896137874059883  0.0000
  O1     O1        0.622178306688830    0.900381832828881    0.123620696639957  0.0000
  O1     O1        0.872481827329022    0.144630348741835    0.147619874452055  0.0000
  O1     O1        0.509311838893918    0.977850121964193    0.958336851929333  0.0000
  O1     O1        0.978874492800827    0.047662710044720    0.968964940063925  0.0000
  O3     O3        0.159422916189146    0.496126477007636    0.340083389949930  0.0000
  O1     O1        0.342791757814576    0.549839053564099    0.338659569413658  0.0000
  O1     O1        0.844661373642013    0.446414848781160    0.676581711823775  0.0000
  O3     O3        0.662267315080756    0.500816372850210    0.679800985499738  0.0000
  O1     O1        0.264477825562124    0.238440747097782    0.294092571575838  0.0000
  O3     O3        0.229451966215807    0.792242527681704    0.306294402307010  0.0000
  O3     O3        0.730353469070878    0.210480729452350    0.735713517949955  0.0000
  O1     O1        0.765498350330587    0.758683976562513    0.714165886729633  0.0000
  O3     O3        0.140105475966936    0.255675758641426    0.133264254821713  0.0000
  O1     O1        0.349718369857668    0.779098733634982    0.135905355015953  0.0000
  O1     O1        0.850891799092109    0.260811480937657    0.899987341489395  0.0000
  O1     O1        0.639712570171282    0.755466470960243    0.877036270378730  0.0000
  O1     O1        0.879955586823801    0.666674729782150    0.882853910413504  0.0000
  O3     O3        0.624067222550523    0.341882316707109    0.883839762426887  0.0000
  O2     O2        0.124284084913045    0.691393868172458    0.148314383215748  0.0000
  O1     O1        0.379695635844262    0.332886543180588    0.129008586399332  0.0000
  O1     O1        0.653749167378155    0.552684907265242    0.095058625936096  0.0000
  O1     O1        0.833539909846750    0.488769067462262    0.103599562252134  0.0000
  O1     O1        0.344033874814466    0.551204715689299    0.927035859067038  0.0000
  O2     O2        0.150070201665127    0.485655319628461    0.952376301776947  0.0000
  O1     O1        0.726852678036340    0.232852528906771    0.065507645083598  0.0000
  O1     O1        0.764537969626646    0.794643521408680    0.031667186470719  0.0000
  O3     O3        0.256564074592812    0.257016799476499    0.979740349946992  0.0000
  O3     O3        0.223650145327684    0.778902638264724    0.976249905368528  0.0000
