data_c00134.vasp
_audit_creation_method             Generated by GULP
_audit_author_name                 Salvador R. G. Balestra
_symmetry_space_group_name_H-M     'P 1             '
_symmetry_Int_Tables_number        1

loop_
_symmetry_equiv_pos_site_id
_symmetry_equiv_pos_as_xyz
_cell_length_a                       17.7215
_cell_length_b                        7.7886
_cell_length_c                       10.2000
_cell_angle_alpha                   87.8793
_cell_angle_beta                    90.5731
_cell_angle_gamma                   90.5796

loop_
_atom_site_label
_atom_site_type_symbol
_atom_site_fract_x
_atom_site_fract_y
_atom_site_fract_z
_atom_site_charge
  Ge     Ge        0.052090000000021    0.000000000000000    0.372269999999958  0.0000
  Ge     Ge        0.444141739541569    0.046376684812392    0.367922815617494  0.0000
  Ge     Ge        0.947872801017188    0.064495666623033    0.620785332322164  0.0000
  Ge     Ge        0.551146973493340    0.018814906143058    0.622752169614599  0.0000
  Ge     Ge        0.554979333627268    0.001542608186975    0.128419176332746  0.0000
  Ge     Ge        0.941234113678401    0.055409937496027    0.127282976633531  0.0000
  Ge     Ge        0.449330228849196    0.078672303971842    0.877175152743168  0.0000
  Ge     Ge        0.050000098952511    0.015225648713013    0.881456125063594  0.0000
  Ge     Ge        0.174390515456204    0.284172706208748    0.257633064183611  0.0000
  Ge     Ge        0.326707025930372    0.757153541515957    0.263439377670460  0.0000
  Ge     Ge        0.849845123034748    0.379451192506071    0.687958462224149  0.0000
  Ge     Ge        0.824140662164414    0.784035476732964    0.692617698864004  0.0000
  Ge     Ge        0.671240383633791    0.304923407217870    0.691682233395408  0.0000
  Ge     Ge        0.146519826699336    0.688883580519076    0.259636894717825  0.0000
  Ge     Ge        0.673809609776600    0.286702053746452    0.009234646587960  0.0000
  Ge     Ge        0.824435611921328    0.767798461517409    0.010612755129382  0.0000
  Ge     Ge        0.346369363553798    0.387864604518331    0.929534087646587  0.0000
  Ge     Ge        0.326707495077845    0.788565192315026    0.947994717825954  0.0000
  Ge     Ge        0.170520863656165    0.307461773803014    0.937968450791240  0.0000
  Ge     Ge        0.645902608383823    0.691626101820408    0.006664148491301  0.0000
  Si     Si        0.649236498130524    0.703892686979040    0.693091003658095  0.0000
  Si     Si        0.348849735255091    0.361399493696904    0.247561120121697  0.0000
  Si     Si        0.151936071852268    0.706895901701421    0.948112750525888  0.0000
  Si     Si        0.849019497835930    0.367527439762727    0.000627817423937  0.0000
  O1     O1        0.130568767050326    0.126923039958883    0.349615963081031  0.0000
  O1     O1        0.375497902558755    0.891678023494086    0.363244187840256  0.0000
  O1     O1        0.916128831944387    0.272021713674862    0.602819276515528  0.0000
  O3     O3        0.589473297472878    0.815717464596752    0.608444679727262  0.0000
  O1     O1        0.871596329780171    0.930022439097861    0.595377991829106  0.0000
  O1     O1        0.618854047281414    0.175309010700015    0.593863355729876  0.0000
  O1     O1        0.076926529875186    0.793548164527126    0.338779970618303  0.0000
  O3     O3        0.414688058643986    0.248543831483147    0.313994178591625  0.0000
  O1     O1        0.025456692667220    0.016861521586349    0.533573171696465  0.0000
  O1     O1        0.472473398048011    0.054068154943189    0.530007784407468  0.0000
  O1     O1        0.972190536367741    0.062460934842475    0.287314936005829  0.0000
  O1     O1        0.525502412742858    0.995095565495028    0.288196876614009  0.0000
  O1     O1        0.972510483887202    0.033684683352940    0.784584756955504  0.0000
  O1     O1        0.524155961650545    0.030951115491407    0.784597052788547  0.0000
  O1     O1        0.633556786995265    0.130980928885567    0.108094658306754  0.0000
  O1     O1        0.872966633231663    0.899630988767251    0.112639340283819  0.0000
  O1     O1        0.415236865748463    0.283731296317495    0.850023528599647  0.0000
  O3     O3        0.094327700655747    0.819531648220892    0.861185874280110  0.0000
  O1     O1        0.373745069731734    0.940846976702279    0.856749025623110  0.0000
  O1     O1        0.112839571782723    0.181350105531550    0.846933669768401  0.0000
  O1     O1        0.576385953971084    0.796236038517446    0.084005320009830  0.0000
  O3     O3        0.910458983391091    0.259889184550481    0.083170567370444  0.0000
  O1     O1        0.479241405555542    0.074684028772186    0.038485750863062  0.0000
  O1     O1        0.020902782076599    0.011950031526842    0.041767068377550  0.0000
  O1     O1        0.154095383015622    0.480777135831166    0.318862245302373  0.0000
  O3     O3        0.340399496084444    0.543719615657880    0.315041264315404  0.0000
  O1     O1        0.841493550646164    0.585817298998016    0.630150094589616  0.0000
  O3     O3        0.661290747642330    0.518364416018182    0.635396545364905  0.0000
  O3     O3        0.271125988978361    0.252617569824953    0.260835609502592  0.0000
  O1     O1        0.231666135265060    0.794336474923666    0.273691184739901  0.0000
  O1     O1        0.765974056875030    0.265904662544910    0.681831159741623  0.0000
  O3     O3        0.727495412578691    0.812953081842535    0.694462133868603  0.0000
  O1     O1        0.143938178234786    0.271103819867175    0.098075519015464  0.0000
  O1     O1        0.359414559532962    0.798740867495422    0.107444162424233  0.0000
  O3     O3        0.876485736020078    0.393798844713586    0.851757239337960  0.0000
  O3     O3        0.622352039661316    0.673956697202268    0.842339774786243  0.0000
  O1     O1        0.854691408510382    0.800385869999167    0.852790243609989  0.0000
  O1     O1        0.641038595032811    0.272422707429613    0.850604711803770  0.0000
  O3     O3        0.122158290727108    0.673616089466504    0.095542823696628  0.0000
  O3     O3        0.364639619619285    0.408509346298198    0.096192667773342  0.0000
  O1     O1        0.653860712283878    0.484887316648940    0.068237857962594  0.0000
  O3     O3        0.836980523471288    0.552921892260062    0.059930394306384  0.0000
  O1     O1        0.341471549442323    0.596203834711801    0.874518070120084  0.0000
  O3     O3        0.164202422730067    0.523353397624186    0.887103644759372  0.0000
  O3     O3        0.770645341172622    0.260168872237420    0.003241180024494  0.0000
  O1     O1        0.729444787070078    0.803809637709778    0.021118606110144  0.0000
  O1     O1        0.264473938086047    0.267979706660616    0.917587242029716  0.0000
  O3     O3        0.230066768214251    0.815435839539759    0.957032254059612  0.0000
