data_c00120.vasp
_audit_creation_method             Generated by GULP
_audit_author_name                 Salvador R. G. Balestra
_symmetry_space_group_name_H-M     'P 1             '
_symmetry_Int_Tables_number        1

loop_
_symmetry_equiv_pos_site_id
_symmetry_equiv_pos_as_xyz
_cell_length_a                       17.6392
_cell_length_b                        7.8574
_cell_length_c                       10.1611
_cell_angle_alpha                   90.7257
_cell_angle_beta                    89.9516
_cell_angle_gamma                   87.9401

loop_
_atom_site_label
_atom_site_type_symbol
_atom_site_fract_x
_atom_site_fract_y
_atom_site_fract_z
_atom_site_charge
  Ge     Ge        0.052090000000021    0.000000000000000    0.372269999999958  0.0000
  Ge     Ge        0.442056322878025    0.961492727288949    0.412201785932646  0.0000
  Ge     Ge        0.942311622469365    0.945706698351165    0.620358880763696  0.0000
  Ge     Ge        0.548603171127637    0.011135289476628    0.664515883363515  0.0000
  Ge     Ge        0.550502205934457    0.007351384826378    0.165287431144667  0.0000
  Ge     Ge        0.942154054391028    0.951304438335298    0.124592048537600  0.0000
  Ge     Ge        0.444449557352557    0.946155351555227    0.916789048986193  0.0000
  Ge     Ge        0.046161513731981    0.007781150162758    0.873269689488982  0.0000
  Ge     Ge        0.146547654762472    0.319013262402071    0.308226216444990  0.0000
  Ge     Ge        0.350046195016623    0.641223421757707    0.301228812330817  0.0000
  Ge     Ge        0.822138953191383    0.238552093717400    0.738097448978678  0.0000
  Ge     Ge        0.667034187248984    0.712815735177297    0.734043126700518  0.0000
  Ge     Ge        0.848406537670915    0.637507066437123    0.735391756432528  0.0000
  Ge     Ge        0.639598344084188    0.322219318851771    0.045909738043322  0.0000
  Ge     Ge        0.843290279021767    0.640272683806741    0.056501580868527  0.0000
  Ge     Ge        0.319538210304515    0.237477646299049    0.983984052567045  0.0000
  Ge     Ge        0.168230285316233    0.719283944681505    0.995246139354754  0.0000
  Ge     Ge        0.348260678646634    0.636739049868556    0.982640217917022  0.0000
  Ge     Ge        0.138832800537448    0.317303082929030    0.990627730259395  0.0000
  Ge     Ge        0.820382752634971    0.242185463085827    0.057156382056029  0.0000
  Si     Si        0.644193227001601    0.317914480558998    0.735909567285717  0.0000
  Si     Si        0.170275339009942    0.708664630393079    0.308490806788694  0.0000
  Si     Si        0.325958725624622    0.250089959101401    0.296166232189236  0.0000
  Si     Si        0.665581543741172    0.718685613027938    0.045395312125797  0.0000
  O1     O1        0.089581417266361    0.195981599352686    0.401643313768160  0.0000
  O1     O1        0.410704088995081    0.758003481479253    0.393424993837075  0.0000
  O1     O1        0.864880946588972    0.081011272706347    0.645088267426008  0.0000
  O1     O1        0.615690034532246    0.849167705094884    0.636860633906689  0.0000
  O1     O1        0.915478861266824    0.742180777109704    0.649358461404882  0.0000
  O3     O3        0.588831593024967    0.207825438326108    0.645987553331597  0.0000
  O3     O3        0.124915452800376    0.848853809354447    0.396076302579547  0.0000
  O3     O3        0.368223369260689    0.103016359721388    0.377674336498182  0.0000
  O1     O1        0.972270865436760    0.961957978130742    0.459608922323280  0.0000
  O1     O1        0.468486460061072    0.989494222738130    0.574056882032858  0.0000
  O1     O1        0.022245978078543    0.990002602176263    0.210287729362710  0.0000
  O1     O1        0.524149733251544    0.996731770709605    0.327724112851177  0.0000
  O1     O1        0.020476734156210    0.997642505368241    0.710459596450640  0.0000
  O1     O1        0.521570419845337    0.992024136411948    0.826732817269156  0.0000
  O1     O1        0.575113512510214    0.213500301318423    0.133338346810943  0.0000
  O1     O1        0.903730368345519    0.755950736223663    0.149835919781488  0.0000
  O1     O1        0.369812997098070    0.090772772029345    0.893118570904680  0.0000
  O1     O1        0.122062343197453    0.872303119228195    0.906519866159021  0.0000
  O1     O1        0.410775658451960    0.746104797982268    0.889502871113294  0.0000
  O1     O1        0.071324059078604    0.214047061251126    0.903651491695769  0.0000
  O3     O3        0.625055913058983    0.862683347364132    0.135449563259204  0.0000
  O1     O1        0.870281692523667    0.101272077929778    0.152347767952657  0.0000
  O1     O1        0.471150641928291    0.956946627325303    0.079971681189650  0.0000
  O1     O1        0.967948884163763    0.953609542560398    0.960417174709135  0.0000
  O3     O3        0.153377591562065    0.523954796829083    0.368145385855452  0.0000
  O3     O3        0.344511890420553    0.434332768086972    0.357581591790542  0.0000
  O1     O1        0.840951532914237    0.434028027713531    0.674420107359809  0.0000
  O3     O3        0.654190339144649    0.504355644082294    0.679201872610713  0.0000
  O3     O3        0.236284481304704    0.223015348335535    0.299257586311771  0.0000
  O3     O3        0.259644832634235    0.736544461974947    0.308437818939790  0.0000
  O3     O3        0.724979479436046    0.215637969222600    0.743802736172443  0.0000
  O1     O1        0.761884451771598    0.746851447069748    0.724566827245168  0.0000
  O1     O1        0.110254776223904    0.323921492395305    0.152327004784978  0.0000
  O1     O1        0.381184804994672    0.633073975816812    0.142542389988356  0.0000
  O1     O1        0.853723427037509    0.226202213421011    0.897561189532709  0.0000
  O3     O3        0.635676866427987    0.733101266218286    0.895912069474454  0.0000
  O1     O1        0.875320773921054    0.621669750272960    0.896947136579757  0.0000
  O3     O3        0.610717439344263    0.332078539330287    0.883458054889173  0.0000
  O3     O3        0.139491888559050    0.718583403787898    0.158946937005511  0.0000
  O3     O3        0.353049129741369    0.241495024966052    0.145029406702231  0.0000
  O3     O3        0.648854508648648    0.530840722276937    0.099773481385543  0.0000
  O1     O1        0.835277549449067    0.443223258208844    0.120097718072997  0.0000
  O1     O1        0.335057157606160    0.437637692979415    0.922286309755314  0.0000
  O1     O1        0.149378137918235    0.519350023142455    0.933938766525657  0.0000
  O1     O1        0.724882792476136    0.212334821755068    0.059757706149341  0.0000
  O3     O3        0.755210917979911    0.745896307751363    0.046002903969605  0.0000
  O1     O1        0.224607422372797    0.204560224833274    0.979783546276433  0.0000
  O1     O1        0.263057876723962    0.751727193337414    0.987509135897594  0.0000
