data_c00111.vasp
_audit_creation_method             Generated by GULP
_audit_author_name                 Salvador R. G. Balestra
_symmetry_space_group_name_H-M     'P 1             '
_symmetry_Int_Tables_number        1

loop_
_symmetry_equiv_pos_site_id
_symmetry_equiv_pos_as_xyz
_cell_length_a                       17.6797
_cell_length_b                        7.8037
_cell_length_c                       10.2737
_cell_angle_alpha                   91.2158
_cell_angle_beta                    90.1759
_cell_angle_gamma                   90.9761

loop_
_atom_site_label
_atom_site_type_symbol
_atom_site_fract_x
_atom_site_fract_y
_atom_site_fract_z
_atom_site_charge
  Ge     Ge        0.052090000000021    0.000000000000000    0.372269999999958  0.0000
  Ge     Ge        0.447606253392963    0.051787525219380    0.343050977093407  0.0000
  Ge     Ge        0.946045428590189    0.025979036820936    0.624528860443794  0.0000
  Ge     Ge        0.551019050142022    0.988210113008918    0.595242518155697  0.0000
  Ge     Ge        0.548987841210177    0.977279324973485    0.086954123514410  0.0000
  Ge     Ge        0.940516112108599    0.034120919992784    0.131050421657484  0.0000
  Ge     Ge        0.441309972213991    0.031397936763210    0.838714440937577  0.0000
  Ge     Ge        0.047651628312184    0.968781341112221    0.883016513148408  0.0000
  Ge     Ge        0.168972210710287    0.293216717179784    0.271976629156312  0.0000
  Ge     Ge        0.323873813789482    0.768295617070904    0.262881448792357  0.0000
  Ge     Ge        0.846233671639433    0.341411640647320    0.695998999506011  0.0000
  Ge     Ge        0.642091159840394    0.668864522619407    0.711244458404574  0.0000
  Ge     Ge        0.823307445494603    0.746118515968707    0.704203956564026  0.0000
  Ge     Ge        0.348939504964962    0.364144559547886    0.275579289977397  0.0000
  Ge     Ge        0.674157560951316    0.259048501403076    0.013156862442557  0.0000
  Ge     Ge        0.825003670656262    0.737307166209591    0.017582194424668  0.0000
  Ge     Ge        0.147672994819549    0.656840398698258    0.940493819089909  0.0000
  Ge     Ge        0.325284417601923    0.738666363577434    0.947408606635327  0.0000
  Ge     Ge        0.171232186333053    0.256381302568851    0.958195950559378  0.0000
  Ge     Ge        0.644463779408339    0.659401644560220    0.025026626050932  0.0000
  Si     Si        0.670241465203734    0.271178156593020    0.703669642370388  0.0000
  Si     Si        0.148052895320723    0.688900245078587    0.252955439552812  0.0000
  Si     Si        0.347179439129136    0.337831360072968    0.965876194790650  0.0000
  Si     Si        0.849279029915169    0.337206011571478    0.006362345422456  0.0000
  O1     O1        0.119261814849635    0.159818772485140    0.371707433750899  0.0000
  O1     O1        0.370424036517066    0.915548298545978    0.359204578814705  0.0000
  O1     O1        0.909743120039881    0.227438131886873    0.606335470775396  0.0000
  O1     O1        0.578201898536462    0.782127793105283    0.622702611260426  0.0000
  O1     O1        0.871422472511535    0.883364050699666    0.606095130646796  0.0000
  O3     O3        0.625829817684967    0.130380983635558    0.617103210837270  0.0000
  O3     O3        0.084417125450578    0.801621230179630    0.321688795259616  0.0000
  O1     O1        0.415147131914392    0.256811663221036    0.362895368973549  0.0000
  O1     O1        0.022578137521391    0.981765786108222    0.531720053094213  0.0000
  O1     O1        0.523805781974280    0.002099360182342    0.434185061656419  0.0000
  O1     O1        0.971505113636429    0.051396618438866    0.289462910581629  0.0000
  O1     O1        0.475285016111567    0.031612776000093    0.181823599273504  0.0000
  O1     O1        0.974403995623229    0.015732800344503    0.785678690382379  0.0000
  O1     O1        0.471562219550172    0.043671061891492    0.680185710790009  0.0000
  O1     O1        0.627364129247135    0.112555048199958    0.102412162778036  0.0000
  O1     O1        0.870968785963472    0.878490144160897    0.120672254883224  0.0000
  O3     O3        0.407552107580172    0.230500319071425    0.884516564856725  0.0000
  O1     O1        0.079730842647851    0.762873207780089    0.858352110603575  0.0000
  O1     O1        0.374827709906590    0.869070562587006    0.846336716099866  0.0000
  O1     O1        0.125252396438913    0.104264233918192    0.866284538034870  0.0000
  O1     O1        0.581428567521055    0.774914761087258    0.116027847121644  0.0000
  O3     O3        0.911257544147583    0.235213693539779    0.085166744807998  0.0000
  O1     O1        0.520112662264500    0.985716923837882    0.926797438832860  0.0000
  O1     O1        0.018340985448103    0.979826558489451    0.042464901438934  0.0000
  O3     O3        0.157775319218573    0.506643351824938    0.321105402644658  0.0000
  O1     O1        0.342018471468266    0.571214136983168    0.327744652991197  0.0000
  O1     O1        0.838969800217730    0.543024341409761    0.640663325771274  0.0000
  O3     O3        0.654819242926719    0.461250532528641    0.651419549501265  0.0000
  O1     O1        0.263880728416878    0.255328477899261    0.284114217898983  0.0000
  O3     O3        0.226872028575353    0.797300055050835    0.259459916185610  0.0000
  O3     O3        0.759183929471215    0.234888167752468    0.695307164860855  0.0000
  O1     O1        0.727745363538485    0.777004776265720    0.706893699368927  0.0000
  O1     O1        0.138187713247775    0.250747448960981    0.115820084771777  0.0000
  O1     O1        0.355504702112892    0.778715305882522    0.104490091778282  0.0000
  O3     O3        0.875061099935978    0.356106834901973    0.857704628303400  0.0000
  O1     O1        0.610778435717982    0.653885163485277    0.867086345338001  0.0000
  O1     O1        0.857435997452552    0.765071956894684    0.861895929730470  0.0000
  O3     O3        0.642813167248340    0.258550975664451    0.852755171724782  0.0000
  O3     O3        0.126264622009221    0.642491226830751    0.105126175636910  0.0000
  O3     O3        0.375746378470803    0.368790990605184    0.112861645822977  0.0000
  O1     O1        0.654976189083331    0.458003924654627    0.080736479841770  0.0000
  O3     O3        0.838075392070424    0.526761736703250    0.065963377916343  0.0000
  O3     O3        0.335483098314897    0.522832808183490    0.904288310631507  0.0000
  O1     O1        0.154552277261993    0.450367448571994    0.886731380854524  0.0000
  O3     O3        0.770638871303497    0.228417911698993    0.013261605180141  0.0000
  O1     O1        0.729797578899558    0.769635561208070    0.020941188865769  0.0000
  O3     O3        0.268320212809496    0.229776804451233    0.966083701137056  0.0000
  O1     O1        0.230673173081696    0.774123913542194    0.931498577586883  0.0000
