data_c00165.vasp
_audit_creation_method             Generated by GULP
_audit_author_name                 Salvador R. G. Balestra
_symmetry_space_group_name_H-M     'P 1             '
_symmetry_Int_Tables_number        1

loop_
_symmetry_equiv_pos_site_id
_symmetry_equiv_pos_as_xyz
_cell_length_a                       17.7573
_cell_length_b                        7.7964
_cell_length_c                       10.1114
_cell_angle_alpha                   89.4842
_cell_angle_beta                    90.0972
_cell_angle_gamma                   90.5667

loop_
_atom_site_label
_atom_site_type_symbol
_atom_site_fract_x
_atom_site_fract_y
_atom_site_fract_z
_atom_site_charge
  Ge     Ge        0.052090000000021    0.000000000000000    0.372269999999958  0.0000
  Ge     Ge        0.441504474309266    0.050816269121738    0.375448947473611  0.0000
  Ge     Ge        0.942074573226885    0.064024996338732    0.617187755665217  0.0000
  Ge     Ge        0.549593119115219    0.023267190457618    0.630066199206440  0.0000
  Ge     Ge        0.546568131332928    0.997421900842911    0.121845432318924  0.0000
  Ge     Ge        0.948298408631226    0.060798807396531    0.119610613555481  0.0000
  Ge     Ge        0.439410523385958    0.055041933157278    0.874614202199477  0.0000
  Ge     Ge        0.051056426301662    0.001326059644680    0.866169087301618  0.0000
  Ge     Ge        0.171213998307593    0.290728316159881    0.310657606751769  0.0000
  Ge     Ge        0.324048374615315    0.760239384104012    0.303054469169308  0.0000
  Ge     Ge        0.848903973104195    0.381066270807601    0.730090392713148  0.0000
  Ge     Ge        0.819754124671886    0.783797698080689    0.734661188576281  0.0000
  Ge     Ge        0.667788991492202    0.314049502371421    0.731610342270073  0.0000
  Ge     Ge        0.669815057521112    0.283834338635379    0.050130229705258  0.0000
  Ge     Ge        0.823456252670272    0.777232286031752    0.056818640002817  0.0000
  Ge     Ge        0.144065637415987    0.686011970328602    0.988867117159033  0.0000
  Ge     Ge        0.323859863549173    0.759420195413498    0.984849135265423  0.0000
  Ge     Ge        0.172638738683451    0.280097170499083    0.986130919611027  0.0000
  Ge     Ge        0.649100472312347    0.688991919082429    0.064149311916701  0.0000
  Ge     Ge        0.846407263133805    0.370523087577062    0.052546731535930  0.0000
  Si     Si        0.644738625007208    0.709259313049148    0.746339044221693  0.0000
  Si     Si        0.148017936638254    0.687116495089334    0.303877386459814  0.0000
  Si     Si        0.344036320298469    0.365252991683293    0.312876392912720  0.0000
  Si     Si        0.345861993135366    0.359991693748428    0.997957758454333  0.0000
  O1     O1        0.119355815771458    0.153826193937555    0.407164582333088  0.0000
  O1     O1        0.370573162893258    0.902281443738304    0.401993647493032  0.0000
  O1     O1        0.916147634937820    0.272257342460247    0.643452438486568  0.0000
  O3     O3        0.580097038599848    0.821890560130984    0.679032824988570  0.0000
  O1     O1        0.863120429904622    0.940928024117250    0.644124534400920  0.0000
  O1     O1        0.619027967473839    0.175932516393172    0.631761749621087  0.0000
  O3     O3        0.090626907106236    0.797537274655676    0.390189929677216  0.0000
  O3     O3        0.407625715211970    0.258999235790589    0.387801254265483  0.0000
  O1     O1        0.970676299618011    0.032440923678708    0.456182157503128  0.0000
  O1     O1        0.519268114554982    0.012542882696578    0.467773827273502  0.0000
  O1     O1        0.027630176146092    0.022490809757338    0.207520532468828  0.0000
  O1     O1        0.468868426563738    0.034690368854017    0.212593527011973  0.0000
  O1     O1        0.021337219949590    0.006403005836545    0.704480234180810  0.0000
  O1     O1        0.469200422227896    0.078142376148661    0.713847969445990  0.0000
  O1     O1        0.618439156960715    0.144051266766021    0.144817825263193  0.0000
  O1     O1        0.879379603745446    0.908338698511624    0.148994397637859  0.0000
  O3     O3        0.412653296520194    0.254480935396216    0.934771715809665  0.0000
  O1     O1        0.075084378010289    0.793830115273074    0.907038534722686  0.0000
  O1     O1        0.369933753727149    0.901071729280412    0.882669828031202  0.0000
  O1     O1        0.128772974555795    0.130781366741361    0.890494646223222  0.0000
  O1     O1        0.581810419552306    0.794649482662172    0.149528334010338  0.0000
  O1     O1        0.910422697545241    0.259738987949932    0.145507991888158  0.0000
  O1     O1        0.519009238150711    0.998359425720830    0.958350196039848  0.0000
  O1     O1        0.974579099077901    0.063973748928931    0.954966407661891  0.0000
  O3     O3        0.156356086293765    0.498803857231845    0.364809362201182  0.0000
  O3     O3        0.339788834500084    0.555878175335360    0.367862619624646  0.0000
  O1     O1        0.839767996677217    0.586728635786842    0.669801174212101  0.0000
  O3     O3        0.653504173180786    0.524544222676839    0.678141967621414  0.0000
  O3     O3        0.266654937239720    0.257240573084704    0.329267682064191  0.0000
  O3     O3        0.227669215765144    0.789681567851495    0.300098533755485  0.0000
  O1     O1        0.762773717728005    0.277759689575576    0.723455359232971  0.0000
  O3     O3        0.723182871728142    0.815205493203968    0.735603267107121  0.0000
  O1     O1        0.145586359312718    0.260178633718070    0.148803394032731  0.0000
  O1     O1        0.355368981883679    0.789803680324027    0.143670907708922  0.0000
  O1     O1        0.876564130579612    0.397288732135607    0.891983954531393  0.0000
  O3     O3        0.626301023384342    0.665641522861698    0.897910395900221  0.0000
  O1     O1        0.852006641267535    0.795631790508262    0.894585986480664  0.0000
  O1     O1        0.636622921758412    0.275824211592280    0.889995573915038  0.0000
  O3     O3        0.118954195442617    0.666975852279734    0.154130820728432  0.0000
  O2     O2        0.358077360014814    0.389998365636789    0.155007843606543  0.0000
  O1     O1        0.660827631155714    0.485141199598536    0.119625104614234  0.0000
  O1     O1        0.832031680855122    0.568970984238320    0.115050900252870  0.0000
  O3     O3        0.339547929918234    0.548879983530861    0.935182076617191  0.0000
  O1     O1        0.150935194799242    0.482035671989417    0.929286876466293  0.0000
  O1     O1        0.764859036055651    0.247038728623877    0.047312760365155  0.0000
  O1     O1        0.729136210269695    0.816616282452563    0.069399099492458  0.0000
  O3     O3        0.269204626233022    0.251949497238782    0.976206653666372  0.0000
  O1     O1        0.228740979118941    0.793085048096723    0.975531122193917  0.0000
