data_c00187.vasp
_audit_creation_method             Generated by GULP
_audit_author_name                 Salvador R. G. Balestra
_symmetry_space_group_name_H-M     'P 1             '
_symmetry_Int_Tables_number        1

loop_
_symmetry_equiv_pos_site_id
_symmetry_equiv_pos_as_xyz
_cell_length_a                       17.6724
_cell_length_b                        7.8140
_cell_length_c                       10.1698
_cell_angle_alpha                   89.5216
_cell_angle_beta                    91.2160
_cell_angle_gamma                   88.3953

loop_
_atom_site_label
_atom_site_type_symbol
_atom_site_fract_x
_atom_site_fract_y
_atom_site_fract_z
_atom_site_charge
  Ge     Ge        0.052090000000021    0.000000000000000    0.372269999999958  0.0000
  Ge     Ge        0.443957127725726    0.953191135489014    0.364486411083534  0.0000
  Ge     Ge        0.939640257919536    0.949511774395973    0.612600971730187  0.0000
  Ge     Ge        0.546961088613958    0.998896746039630    0.624636596467983  0.0000
  Ge     Ge        0.549462524005377    0.013798944210027    0.121478382320303  0.0000
  Ge     Ge        0.942210963922512    0.950504679597636    0.121706473359046  0.0000
  Ge     Ge        0.439302289066182    0.955973306974022    0.874567255597059  0.0000
  Ge     Ge        0.042004938231222    0.022235536940605    0.869363922671586  0.0000
  Ge     Ge        0.146873540988191    0.313840763008423    0.250955614872217  0.0000
  Ge     Ge        0.352309964398287    0.635669061287305    0.249842806119328  0.0000
  Ge     Ge        0.818746870857605    0.235955175662915    0.688168123346802  0.0000
  Ge     Ge        0.841130116548206    0.633745760003215    0.672016294371649  0.0000
  Ge     Ge        0.171885711963139    0.714812539112224    0.262809249769311  0.0000
  Ge     Ge        0.640095996029761    0.323116872686226    0.001544006683626  0.0000
  Ge     Ge        0.849140230886258    0.641315312057912    0.995787883075481  0.0000
  Ge     Ge        0.319824113676520    0.253788226186910    0.933678775491698  0.0000
  Ge     Ge        0.166076140733428    0.733183895753011    0.944890565774417  0.0000
  Ge     Ge        0.141148960028119    0.333167507888660    0.927383125393175  0.0000
  Ge     Ge        0.670460965832772    0.729580499874714    0.996032245983778  0.0000
  Ge     Ge        0.820220017263239    0.237520858537073    0.006880370973511  0.0000
  Si     Si        0.664629878259785    0.706483758933532    0.682210728527632  0.0000
  Si     Si        0.640783283029647    0.313809329383787    0.693066127458712  0.0000
  Si     Si        0.324251270762040    0.238716489196101    0.246503632431512  0.0000
  Si     Si        0.342409016329692    0.649660484133394    0.940324232845031  0.0000
  O1     O1        0.081457238981234    0.201194264558214    0.334262289216922  0.0000
  O1     O1        0.418860933886007    0.745090609695649    0.336414847705118  0.0000
  O1     O1        0.863139462090493    0.089322418007400    0.591490618168291  0.0000
  O3     O3        0.613970748083827    0.836558359566813    0.593123457101513  0.0000
  O1     O1        0.904568696994576    0.749944256782497    0.585753898373032  0.0000
  O3     O3        0.585905487229908    0.199989922748655    0.604365312000217  0.0000
  O1     O1        0.127286885467818    0.859522653655546    0.362219439169281  0.0000
  O3     O3        0.368579309922902    0.092746366972936    0.329970715498466  0.0000
  O1     O1        0.019162808422373    0.998253269514572    0.531298273791316  0.0000
  O1     O1        0.468278723796108    0.976281600657723    0.528122790575294  0.0000
  O1     O1        0.973492767072100    0.942634786732255    0.282779413249710  0.0000
  O1     O1        0.525098339612801    0.999416883419451    0.283548537632792  0.0000
  O1     O1        0.966183826211107    0.965114716138837    0.777527153943572  0.0000
  O1     O1        0.517988349437406    0.978296307761088    0.784203477735104  0.0000
  O1     O1        0.573421621830109    0.221689158200362    0.089457517042406  0.0000
  O1     O1        0.919479659117401    0.746387251277587    0.075881452345774  0.0000
  O1     O1        0.373900781321030    0.119373059437367    0.841841982311243  0.0000
  O1     O1        0.119293854344646    0.884476992495599    0.851964142991443  0.0000
  O3     O3        0.396775686486506    0.759921742841798    0.851053478819822  0.0000
  O1     O1        0.073888188645278    0.225283867144281    0.840487281782545  0.0000
  O1     O1        0.625396499147136    0.880906190062039    0.086681546853752  0.0000
  O1     O1        0.865052260667065    0.087881938818576    0.106249563560135  0.0000
  O1     O1        0.469328039919825    0.959186920341204    0.036281247723370  0.0000
  O1     O1        0.016226594135583    0.020290391535651    0.032116561180843  0.0000
  O1     O1        0.155261622896682    0.511606469127551    0.319481343933837  0.0000
  O3     O3        0.342312897165393    0.426163019837288    0.303430019474856  0.0000
  O1     O1        0.836363778780880    0.430678379547544    0.615535754959875  0.0000
  O2     O2        0.651269291729726    0.508062115305685    0.639620576415119  0.0000
  O3     O3        0.234777079671994    0.207566616365935    0.252309598331513  0.0000
  O1     O1        0.267409534492687    0.743854223929171    0.265650473649208  0.0000
  O3     O3        0.722020013214980    0.215074592276842    0.698327854309766  0.0000
  O3     O3        0.753022253406641    0.740047276142280    0.666894080402831  0.0000
  O1     O1        0.118176828529383    0.344251338741042    0.090992425266391  0.0000
  O3     O3        0.377938134479748    0.626339389369639    0.086820308255924  0.0000
  O1     O1        0.852326243213784    0.219305833314961    0.848235238484610  0.0000
  O3     O3        0.640925250620116    0.735707599396174    0.832379122761935  0.0000
  O1     O1        0.870879964099289    0.617815268114841    0.833428586163100  0.0000
  O3     O3        0.608366679589404    0.325333735250094    0.838553563317738  0.0000
  O1     O1        0.135922034544907    0.742695246613998    0.104870529692521  0.0000
  O3     O3        0.350366269029793    0.230233883063531    0.096027092895314  0.0000
  O1     O1        0.651651689267125    0.527594026421523    0.054706562681257  0.0000
  O1     O1        0.838225556816218    0.441236661624938    0.061464333004512  0.0000
  O3     O3        0.329356280846598    0.464538493887303    0.880039207522597  0.0000
  O1     O1        0.147813439373820    0.538512806062732    0.873471094365836  0.0000
  O1     O1        0.724629076857482    0.209516447051535    0.011418236453855  0.0000
  O1     O1        0.765800520145847    0.760183850001536    0.005600994254871  0.0000
  O1     O1        0.225602151905625    0.216820627876690    0.918436067340248  0.0000
  O3     O3        0.263100062628739    0.756092747084275    0.952652786983882  0.0000
