data_c00191.vasp
_audit_creation_method             Generated by GULP
_audit_author_name                 Salvador R. G. Balestra
_symmetry_space_group_name_H-M     'P 1             '
_symmetry_Int_Tables_number        1

loop_
_symmetry_equiv_pos_site_id
_symmetry_equiv_pos_as_xyz
_cell_length_a                       17.8759
_cell_length_b                        7.8059
_cell_length_c                       10.3631
_cell_angle_alpha                   89.5485
_cell_angle_beta                    90.9712
_cell_angle_gamma                   90.0294

loop_
_atom_site_label
_atom_site_type_symbol
_atom_site_fract_x
_atom_site_fract_y
_atom_site_fract_z
_atom_site_charge
  Ge     Ge        0.052090000000021    0.000000000000000    0.372269999999958  0.0000
  Ge     Ge        0.448807123065564    0.036527067449834    0.366843491417700  0.0000
  Ge     Ge        0.940726434875797    0.998158917205110    0.613822653643395  0.0000
  Ge     Ge        0.551340912428636    0.029669018558212    0.625327408995260  0.0000
  Ge     Ge        0.550417509340138    0.022286665688035    0.108663324213594  0.0000
  Ge     Ge        0.948717984270144    0.003854445140126    0.114182587848359  0.0000
  Ge     Ge        0.440626700472401    0.031177551371711    0.863312782591628  0.0000
  Ge     Ge        0.050905073212756    0.000651275852987    0.864854502157297  0.0000
  Ge     Ge        0.173246581125477    0.279947789591504    0.297884652173783  0.0000
  Ge     Ge        0.330292831372563    0.747420161429545    0.295260549548288  0.0000
  Ge     Ge        0.821482482075753    0.281970582737613    0.728755061192763  0.0000
  Ge     Ge        0.840095825840570    0.689009843849238    0.723489554297199  0.0000
  Ge     Ge        0.151445405587131    0.685815839451493    0.301668125385828  0.0000
  Ge     Ge        0.847728478548678    0.688246293172824    0.040762763269086  0.0000
  Ge     Ge        0.349220696536602    0.344680495322760    0.986203444237220  0.0000
  Ge     Ge        0.144887625853380    0.685118936974462    0.986802623083578  0.0000
  Ge     Ge        0.323117979887108    0.754795650469430    0.983049093493414  0.0000
  Ge     Ge        0.171962076963251    0.276145716471610    0.983872747709625  0.0000
  Ge     Ge        0.668723613617366    0.738270524893884    0.041278566463617  0.0000
  Ge     Ge        0.824555560505848    0.279846298678541    0.046048179384753  0.0000
  Si     Si        0.664032436279228    0.738265980248864    0.735317536304712  0.0000
  Si     Si        0.647353874109786    0.338116797732662    0.738358502908524  0.0000
  Si     Si        0.347935743295562    0.344584740535574    0.293761787801864  0.0000
  Si     Si        0.650339417161639    0.333293958174483    0.041184336388334  0.0000
  O1     O1        0.124585258515466    0.143049657839835    0.394536673150613  0.0000
  O1     O1        0.384228393927286    0.875798386820516    0.392056319472889  0.0000
  O1     O1        0.869173422061556    0.138984130039634    0.638814211132160  0.0000
  O3     O3        0.614311424212250    0.863297048796733    0.646298209756749  0.0000
  O1     O1        0.902063927567916    0.798709571957945    0.630817292298926  0.0000
  O3     O3        0.586220377687360    0.232546340925305    0.659521149949334  0.0000
  O1     O1        0.089601209684738    0.799284140881666    0.392620542555811  0.0000
  O3     O3        0.405641674856533    0.234758975164536    0.380477685528388  0.0000
  O1     O1        0.973561095825439    0.027828539471356    0.460136462747995  0.0000
  O1     O1        0.526014312864745    0.025445421345086    0.464909222863998  0.0000
  O1     O1        0.023768886218779    0.030439094866732    0.213302468684007  0.0000
  O1     O1        0.478042086838718    0.010328952207119    0.210950014911832  0.0000
  O1     O1        0.019636015015388    0.022326416073842    0.708220767177022  0.0000
  O1     O1        0.469431523141264    0.010352084055704    0.706834304500205  0.0000
  O3     O3        0.589924635471957    0.226112536664429    0.118711969221217  0.0000
  O1     O1        0.913743803875362    0.799251229294983    0.126529790989460  0.0000
  O1     O1        0.415281203408978    0.237434599550578    0.902192636253982  0.0000
  O1     O1        0.078276862026711    0.793327518787129    0.898522481297112  0.0000
  O1     O1        0.365611270344604    0.897566665094406    0.883001532046360  0.0000
  O1     O1        0.125741903781786    0.134926730637784    0.886726141953259  0.0000
  O1     O1        0.618051150032079    0.868104426274479    0.137132969062845  0.0000
  O1     O1        0.874627965896825    0.140798473324638    0.139624705256258  0.0000
  O1     O1        0.516474396579686    0.975992773046911    0.957321632770310  0.0000
  O1     O1        0.977200685077094    0.051840079093150    0.960050167313642  0.0000
  O1     O1        0.159571136863465    0.481607008561823    0.358807197314975  0.0000
  O3     O3        0.338567526288974    0.534814545198233    0.347053588840431  0.0000
  O1     O1        0.838394307947297    0.483672839277280    0.669581609514515  0.0000
  O2     O2        0.652553197323729    0.537682819339102    0.695029184911013  0.0000
  O3     O3        0.268776349669979    0.243852064623526    0.294198131689281  0.0000
  O1     O1        0.236368967729163    0.791432340419408    0.302722361038850  0.0000
  O3     O3        0.726115153454281    0.245425191384880    0.718036404793022  0.0000
  O3     O3        0.751248122393736    0.780325744240824    0.719162906361603  0.0000
  O1     O1        0.142009755406677    0.263803482120024    0.140480112737330  0.0000
  O1     O1        0.357870280535334    0.772289593314579    0.138203574914603  0.0000
  O1     O1        0.849764213505881    0.267399118699181    0.886779204887383  0.0000
  O3     O3        0.639776242281019    0.763763392957136    0.881613571334694  0.0000
  O1     O1        0.871947280152427    0.694391620519239    0.880534997313002  0.0000
  O2     O2        0.626358268882137    0.331329507230757    0.889344121326391  0.0000
  O1     O1        0.117909133061416    0.676638977371423    0.145065599861985  0.0000
  O3     O3        0.376584366473220    0.356568097406692    0.147435695369507  0.0000
  O3     O3        0.656429233265615    0.526189725317913    0.089655194176092  0.0000
  O1     O1        0.842901014369420    0.484034253302692    0.098390863243204  0.0000
  O1     O1        0.337990070236762    0.549055847877011    0.929227823701153  0.0000
  O1     O1        0.155756026582922    0.482458214757901    0.928945903116373  0.0000
  O3     O3        0.729895557244662    0.238603019208522    0.056196013051003  0.0000
  O1     O1        0.761621325819761    0.785680621855575    0.052463914627214  0.0000
  O1     O1        0.265950525312407    0.235273286435303    0.977149613615606  0.0000
  O1     O1        0.228788476340730    0.793087488503176    0.983148144148580  0.0000
