data_c00112.vasp
_audit_creation_method             Generated by GULP
_audit_author_name                 Salvador R. G. Balestra
_symmetry_space_group_name_H-M     'P 1             '
_symmetry_Int_Tables_number        1

loop_
_symmetry_equiv_pos_site_id
_symmetry_equiv_pos_as_xyz
_cell_length_a                       17.6619
_cell_length_b                        7.8120
_cell_length_c                       10.2498
_cell_angle_alpha                   91.6962
_cell_angle_beta                    90.1982
_cell_angle_gamma                   91.1068

loop_
_atom_site_label
_atom_site_type_symbol
_atom_site_fract_x
_atom_site_fract_y
_atom_site_fract_z
_atom_site_charge
  Ge     Ge        0.052090000000021    0.000000000000000    0.372269999999958  0.0000
  Ge     Ge        0.447222823839681    0.051813411028367    0.334430800023472  0.0000
  Ge     Ge        0.943841779061388    0.033589073716935    0.620530902913086  0.0000
  Ge     Ge        0.549069259522788    0.994166244217519    0.588588206153022  0.0000
  Ge     Ge        0.548141472140304    0.991101946074366    0.074722143409039  0.0000
  Ge     Ge        0.939754777063616    0.048821245076845    0.131767354123405  0.0000
  Ge     Ge        0.437505727760326    0.034369416462160    0.828761088663097  0.0000
  Ge     Ge        0.043583875139291    0.970732412336547    0.879512778057246  0.0000
  Ge     Ge        0.168335525124919    0.293216178746662    0.267291760942151  0.0000
  Ge     Ge        0.322988339719674    0.768946891635475    0.257763705058576  0.0000
  Ge     Ge        0.844555249494118    0.350956274387169    0.692041430033931  0.0000
  Ge     Ge        0.640228737372605    0.677102687309869    0.703653816981048  0.0000
  Ge     Ge        0.820530668187050    0.753706655223462    0.694312579897430  0.0000
  Ge     Ge        0.348637854566797    0.365002109202346    0.267233700952077  0.0000
  Ge     Ge        0.668908828144570    0.284718863496889    0.009895823618470  0.0000
  Ge     Ge        0.821111960221153    0.761716558028928    0.010556860413175  0.0000
  Ge     Ge        0.144076089053730    0.660106555775587    0.936873660691903  0.0000
  Ge     Ge        0.322073016058624    0.741580527541858    0.940787801255899  0.0000
  Ge     Ge        0.167535303770178    0.259564117096130    0.953012895180924  0.0000
  Ge     Ge        0.848999516422868    0.358771151009317    0.010997884449942  0.0000
  Si     Si        0.667315423347159    0.278876774665998    0.700922492878140  0.0000
  Si     Si        0.146985795708993    0.689248380552953    0.250702247777902  0.0000
  Si     Si        0.343881245739650    0.341179213735302    0.957250515488855  0.0000
  Si     Si        0.644617640344664    0.680594762838240    0.010605756153195  0.0000
  O1     O1        0.119249263595623    0.159902095422901    0.367475338775278  0.0000
  O1     O1        0.369740686273351    0.916890689791596    0.354477390483991  0.0000
  O1     O1        0.906741438925558    0.232894304230654    0.600736054459340  0.0000
  O1     O1        0.574234812118095    0.787550088897268    0.619448526661271  0.0000
  O1     O1        0.870133888465303    0.889003308807632    0.597275067811118  0.0000
  O3     O3        0.624116045498617    0.135819313683021    0.612991687671481  0.0000
  O3     O3        0.084113964036289    0.800587955288298    0.323832829391482  0.0000
  O1     O1        0.415628773572400    0.257916519411158    0.352044116618824  0.0000
  O1     O1        0.022678596077770    0.989573872604443    0.532436396442299  0.0000
  O1     O1        0.523928344188348    0.007261167621061    0.426356328640111  0.0000
  O1     O1        0.970357392372769    0.047064983281243    0.290731282744449  0.0000
  O1     O1        0.472631269926822    0.018853727791458    0.172819532912261  0.0000
  O1     O1        0.970276969054308    0.021847014234213    0.783365100377994  0.0000
  O1     O1        0.467828037603753    0.047033756017850    0.670095622060767  0.0000
  O1     O1        0.616040121645004    0.150526665914711    0.101447284645364  0.0000
  O1     O1        0.860853782088148    0.918867678162815    0.108310849685550  0.0000
  O3     O3        0.402952478805069    0.233120218307266    0.873262649643762  0.0000
  O1     O1        0.075468454200401    0.764789029190833    0.855349239391612  0.0000
  O1     O1        0.371542405146888    0.871208663103696    0.839120129072431  0.0000
  O1     O1        0.121187717040289    0.106201934460865    0.861646395988808  0.0000
  O3     O3        0.588540800248064    0.792491095932398    0.098699368555583  0.0000
  O1     O1        0.916601719775490    0.254836433253782    0.095548141536917  0.0000
  O1     O1        0.517627521445113    0.993693971884189    0.915561212827954  0.0000
  O1     O1        0.014323807900727    0.980370891012256    0.039671070269502  0.0000
  O3     O3        0.157197275012614    0.506789033274377    0.316762267238389  0.0000
  O1     O1        0.341685079773804    0.571935295093073    0.320827047804378  0.0000
  O1     O1        0.835715422160126    0.549409002516395    0.632158713940514  0.0000
  O3     O3        0.651269224245066    0.467393693638250    0.647205529299898  0.0000
  O1     O1        0.263372865665494    0.256002579125455    0.277000751737562  0.0000
  O3     O3        0.225842239627973    0.797622450049035    0.256589770890332  0.0000
  O3     O3        0.756721196722243    0.246095805013109    0.697797733123080  0.0000
  O1     O1        0.724933875618549    0.786385944296331    0.690922666761004  0.0000
  O1     O1        0.135339100619323    0.252081835265901    0.111607913794752  0.0000
  O1     O1        0.352558068248624    0.780164624390630    0.098004948416083  0.0000
  O1     O1        0.875826874516521    0.369381878846455    0.850750782002671  0.0000
  O3     O3        0.611594849210602    0.662880303996668    0.863788829196091  0.0000
  O1     O1        0.853637726973242    0.774234271776175    0.852975408240713  0.0000
  O3     O3        0.638330003161272    0.265125500256630    0.849068192767434  0.0000
  O3     O3        0.123510077336808    0.646908949990151    0.102265559444251  0.0000
  O3     O3        0.374542055139354    0.369892111344827    0.103779557139966  0.0000
  O3     O3        0.656528943758730    0.494965610820547    0.067195063305506  0.0000
  O1     O1        0.840895154883118    0.564653565949807    0.071097560068010  0.0000
  O3     O3        0.331533695639261    0.525511512253935    0.896697825817244  0.0000
  O1     O1        0.149798622518356    0.452879762071320    0.882912576251854  0.0000
  O1     O1        0.763573617459467    0.248049798569028    0.020694578233113  0.0000
  O3     O3        0.724194348711250    0.784543043548410    0.001285472155589  0.0000
  O3     O3        0.264627679153008    0.234090519736186    0.960029758301237  0.0000
  O1     O1        0.227183709452253    0.776664959775077    0.925405553910229  0.0000
