data_c00190.vasp
_audit_creation_method             Generated by GULP
_audit_author_name                 Salvador R. G. Balestra
_symmetry_space_group_name_H-M     'P 1             '
_symmetry_Int_Tables_number        1

loop_
_symmetry_equiv_pos_site_id
_symmetry_equiv_pos_as_xyz
_cell_length_a                       17.6599
_cell_length_b                        7.8221
_cell_length_c                       10.1852
_cell_angle_alpha                   89.4523
_cell_angle_beta                    90.9837
_cell_angle_gamma                   91.5931

loop_
_atom_site_label
_atom_site_type_symbol
_atom_site_fract_x
_atom_site_fract_y
_atom_site_fract_z
_atom_site_charge
  Ge     Ge        0.052090000000021    0.000000000000000    0.372269999999958  0.0000
  Ge     Ge        0.446781693072415    0.060805859180330    0.329934292674541  0.0000
  Ge     Ge        0.943191744069777    0.069737347186087    0.615240692450655  0.0000
  Ge     Ge        0.554760644006851    0.025191577335928    0.583706018585984  0.0000
  Ge     Ge        0.550552483272913    0.003965456707699    0.077716545903184  0.0000
  Ge     Ge        0.944984057399236    0.057088282841124    0.119945517060169  0.0000
  Ge     Ge        0.444206111691588    0.062035228933756    0.825266925486937  0.0000
  Ge     Ge        0.047412055993107    0.998155410608566    0.869892208561957  0.0000
  Ge     Ge        0.173242879605614    0.288156751422917    0.258264434390700  0.0000
  Ge     Ge        0.326742991704573    0.766631701336081    0.260135818728492  0.0000
  Ge     Ge        0.846651366668096    0.384354967900017    0.681104678317940  0.0000
  Ge     Ge        0.821272681288886    0.782657599821474    0.690461734723799  0.0000
  Ge     Ge        0.145412019424906    0.688266565498685    0.258825318776428  0.0000
  Ge     Ge        0.673503205772635    0.294758325466756    0.004900493261456  0.0000
  Ge     Ge        0.351655689915861    0.369830920332177    0.947594774391694  0.0000
  Ge     Ge        0.144957245671918    0.685008334005837    0.938527151837149  0.0000
  Ge     Ge        0.324165812887716    0.775514906639610    0.942485992699416  0.0000
  Ge     Ge        0.172885921401881    0.283011979160095    0.939343166857051  0.0000
  Ge     Ge        0.651189625602798    0.698794988695997    0.012981094704043  0.0000
  Ge     Ge        0.853736068645343    0.374240002582291    0.998821660801151  0.0000
  Si     Si        0.644349303174355    0.711742875946995    0.702749280524877  0.0000
  Si     Si        0.668024802553716    0.317798205672503    0.695384781369413  0.0000
  Si     Si        0.349743822545085    0.370864384270152    0.260019238422069  0.0000
  Si     Si        0.827621915514179    0.772121423489104    0.002681814548976  0.0000
  O1     O1        0.129650149865250    0.133067181189668    0.350707779052304  0.0000
  O1     O1        0.378481794163650    0.904062497212152    0.358291926136764  0.0000
  O1     O1        0.907038147916584    0.268623052475445    0.588698015403741  0.0000
  O3     O3        0.585626546991731    0.820284984925312    0.617127680500154  0.0000
  O1     O1        0.866660217071241    0.930086988105618    0.595093250521073  0.0000
  O3     O3        0.623047060909834    0.186305842392583    0.602089161904329  0.0000
  O1     O1        0.079115727485240    0.795093219836463    0.344895503713368  0.0000
  O3     O3        0.408651107638173    0.261889253499996    0.345762058413672  0.0000
  O1     O1        0.022141813840487    0.021910757848377    0.531796217489249  0.0000
  O1     O1        0.527233970127361    0.032911530719061    0.420911314813569  0.0000
  O1     O1        0.972784338492157    0.051590406248967    0.282262878561434  0.0000
  O1     O1        0.473852875348664    0.042895867167656    0.168304075144795  0.0000
  O1     O1        0.969921005695462    0.047659355453497    0.778980907173687  0.0000
  O1     O1        0.473055492427604    0.063922137317498    0.664857819134133  0.0000
  O1     O1        0.623250529687301    0.153471428938296    0.098035222291912  0.0000
  O3     O3        0.871355509600392    0.911058601145975    0.091251388659826  0.0000
  O1     O1        0.420347720889952    0.266314949333150    0.867835691930278  0.0000
  O1     O1        0.080099164485588    0.795641759410870    0.846752879721394  0.0000
  O1     O1        0.367992073580202    0.923401714211602    0.843404228097241  0.0000
  O1     O1        0.121823119823677    0.142021969152438    0.844978436318325  0.0000
  O1     O1        0.590502156480795    0.807946289679444    0.106709048973410  0.0000
  O1     O1        0.918674905612844    0.263956105490010    0.088874302629532  0.0000
  O1     O1        0.521270404525648    0.001579934080140    0.915729081586521  0.0000
  O1     O1        0.022873110592777    0.006966361323143    0.033388570572991  0.0000
  O1     O1        0.154790116242393    0.485269466940144    0.321448988755235  0.0000
  O3     O3        0.338886005292148    0.557760219042412    0.317710120306801  0.0000
  O1     O1        0.841189985604340    0.587691242405645    0.623777172949719  0.0000
  O2     O2        0.653964716913424    0.516378904856212    0.652441738008987  0.0000
  O3     O3        0.270334258210667    0.263151383953886    0.256370168270260  0.0000
  O1     O1        0.231269223231103    0.799507055654471    0.265021114262149  0.0000
  O3     O3        0.757128674594344    0.286404923132475    0.687740430977923  0.0000
  O3     O3        0.725063265351133    0.811340959788429    0.691349913590263  0.0000
  O1     O1        0.141430142196616    0.271730100861746    0.098751694131533  0.0000
  O1     O1        0.357592766662505    0.793298716415391    0.101793198262715  0.0000
  O1     O1        0.882118672440872    0.384135930466301    0.839380618598740  0.0000
  O3     O3        0.617547525620334    0.700420218063254    0.851275268111851  0.0000
  O3     O3        0.854591884963239    0.786406843427520    0.852210791287918  0.0000
  O3     O3        0.640076998332513    0.285847839051642    0.843044213821362  0.0000
  O1     O1        0.116015453349601    0.665257162074250    0.098698204403733  0.0000
  O3     O3        0.377982746643916    0.393913532496903    0.111327720821027  0.0000
  O1     O1        0.658415206264350    0.495144132552049    0.067191244637784  0.0000
  O3     O3        0.843541714269599    0.580636549279201    0.055397920860848  0.0000
  O1     O1        0.339514807126473    0.571691321593560    0.886423189200108  0.0000
  O1     O1        0.158475684189749    0.486890823659059    0.877633680749045  0.0000
  O1     O1        0.768515370067299    0.263096214538437    0.009024054950722  0.0000
  O3     O3        0.738684298660248    0.805015695115342    0.009324220009461  0.0000
  O1     O1        0.268365904675940    0.250231621985287    0.936227529899564  0.0000
  O1     O1        0.228487544839853    0.804932565891165    0.942503906473242  0.0000
