data_c00154.vasp
_audit_creation_method             Generated by GULP
_audit_author_name                 Salvador R. G. Balestra
_symmetry_space_group_name_H-M     'P 1             '
_symmetry_Int_Tables_number        1

loop_
_symmetry_equiv_pos_site_id
_symmetry_equiv_pos_as_xyz
_cell_length_a                       17.7640
_cell_length_b                        7.7821
_cell_length_c                       10.2615
_cell_angle_alpha                   89.9974
_cell_angle_beta                    90.0007
_cell_angle_gamma                   90.3819

loop_
_atom_site_label
_atom_site_type_symbol
_atom_site_fract_x
_atom_site_fract_y
_atom_site_fract_z
_atom_site_charge
  Ge     Ge        0.052090000000021    0.000000000000000    0.372269999999958  0.0000
  Ge     Ge        0.446865324644410    0.041414372914777    0.343621416041511  0.0000
  Ge     Ge        0.946859739129236    0.041437552692147    0.624221541837886  0.0000
  Ge     Ge        0.552081935872857    0.000013673707854    0.595598365122878  0.0000
  Ge     Ge        0.548731837272555    0.980381573788122    0.085792717501889  0.0000
  Ge     Ge        0.941342541321356    0.036596979380990    0.130457127558974  0.0000
  Ge     Ge        0.441332115268462    0.036623627401995    0.837386602496989  0.0000
  Ge     Ge        0.048739899831962    0.980449119260397    0.882038820578527  0.0000
  Ge     Ge        0.169615914448007    0.291660718891452    0.271642765957580  0.0000
  Ge     Ge        0.323073615279037    0.764517314678562    0.262838650499995  0.0000
  Ge     Ge        0.848605939528814    0.358074203067459    0.692217517835585  0.0000
  Ge     Ge        0.823060090095842    0.764531118009254    0.704984876669157  0.0000
  Ge     Ge        0.669596600925372    0.291680495142317    0.696198014546089  0.0000
  Ge     Ge        0.348614185388795    0.358075436474475    0.275638386257615  0.0000
  Ge     Ge        0.671999640122101    0.262733735682384    0.010395833408380  0.0000
  Ge     Ge        0.825282715634512    0.743911207643105    0.020561211256112  0.0000
  Ge     Ge        0.148843224765197    0.665867230688014    0.940866639300138  0.0000
  Ge     Ge        0.325285685375823    0.743934824239878    0.947279085833253  0.0000
  Ge     Ge        0.172019183147883    0.262761793959795    0.957426666694818  0.0000
  Ge     Ge        0.648859365846677    0.665823123355520    0.027015118575703  0.0000
  Si     Si        0.648205287514985    0.689701728901013    0.714358034486946  0.0000
  Si     Si        0.148209621659146    0.689709705067916    0.253486377527466  0.0000
  Si     Si        0.346698204286203    0.340394091336496    0.965398754417578  0.0000
  Si     Si        0.846678463993998    0.340341891439941    0.002430474951361  0.0000
  O1     O1        0.119325582316075    0.157682913986485    0.371412224003342  0.0000
  O1     O1        0.369337094924771    0.908249115324192    0.358969827218709  0.0000
  O1     O1        0.914590697180159    0.247719162961690    0.604630872294449  0.0000
  O3     O3        0.584643266834228    0.801104702659489    0.644104408771732  0.0000
  O1     O1        0.869338004982852    0.908254188567920    0.608859750373058  0.0000
  O1     O1        0.619326167310795    0.157670598739233    0.596424125297004  0.0000
  O3     O3        0.084678938501555    0.801091850519446    0.323839356188772  0.0000
  O1     O1        0.414610535392878    0.247708379146405    0.363197186285332  0.0000
  O1     O1        0.021738953798085    0.984699991606684    0.532129049130215  0.0000
  O1     O1        0.521733063499313    0.984657506643679    0.435740448787942  0.0000
  O1     O1        0.972049665625268    0.053809915617206    0.288733078053409  0.0000
  O1     O1        0.474989014559621    0.026782000970300    0.182296518903446  0.0000
  O1     O1        0.974982805369210    0.026818643879489    0.785551318120469  0.0000
  O1     O1        0.472044966602873    0.053883864606578    0.679117533962148  0.0000
  O1     O1        0.625517736128181    0.116076251515369    0.103357835926066  0.0000
  O1     O1        0.875596062529620    0.874326196674771    0.122150054747118  0.0000
  O3     O3        0.407063145067452    0.235429207761419    0.883189909636550  0.0000
  O1     O1        0.081067638539976    0.774343550827310    0.858109733781270  0.0000
  O1     O1        0.375547150666349    0.874438520810139    0.845671244689505  0.0000
  O1     O1        0.125529582975001    0.116138715483910    0.864453700731886  0.0000
  O1     O1        0.581065919830905    0.774278877811651    0.109728825191192  0.0000
  O3     O3        0.907017047229475    0.235383015297093    0.084713797669690  0.0000
  O1     O1        0.519923632117317    0.990994893882993    0.925823472493474  0.0000
  O1     O1        0.019949854709346    0.991129618598483    0.042015802619505  0.0000
  O3     O3        0.158275052576150    0.504586355480543    0.320766647829299  0.0000
  O1     O1        0.340955028527142    0.564496778767004    0.327390659670985  0.0000
  O1     O1        0.840944797337478    0.564501336782741    0.640469061896019  0.0000
  O3     O3        0.658242323381629    0.504595541307325    0.647041619537642  0.0000
  O1     O1        0.263884708005989    0.250555463994019    0.284288546037866  0.0000
  O3     O3        0.226539300828083    0.796657080112206    0.259596549367493  0.0000
  O1     O1        0.763867957851756    0.250588231356585    0.683587932010175  0.0000
  O3     O3        0.726525845425505    0.796675839667845    0.708171273881555  0.0000
  O1     O1        0.139174436411462    0.254398403361920    0.115335940920585  0.0000
  O1     O1        0.354944935816335    0.779090084716241    0.104386009074687  0.0000
  O3     O3        0.875107784130070    0.365806549646068    0.855386101285478  0.0000
  O3     O3        0.626310254421640    0.649564270587239    0.862401297882964  0.0000
  O1     O1        0.854916615357645    0.779101577715856    0.863445127208848  0.0000
  O1     O1        0.639137944548254    0.254383111837331    0.852494129484763  0.0000
  O3     O3        0.126234076521557    0.649679235359482    0.105461562974348  0.0000
  O3     O3        0.375085565150729    0.365886278401803    0.112460870989886  0.0000
  O1     O1        0.656088583470781    0.460453242413404    0.080953181420286  0.0000
  O3     O3        0.834273113609654    0.528039957736653    0.063135583159663  0.0000
  O3     O3        0.334312076975945    0.528092257059830    0.904661015939248  0.0000
  O1     O1        0.156091491544851    0.460515395815937    0.886922134218843  0.0000
  O3     O3        0.768525597261881    0.232289309702992    0.002722107001075  0.0000
  O1     O1        0.731130906812403    0.783045722243789    0.036138745381464  0.0000
  O3     O3        0.268546971512628    0.232334505249022    0.965053875503832  0.0000
  O1     O1        0.231127729523310    0.783045771535269    0.931782387488142  0.0000
