data_c00140.vasp
_audit_creation_method             Generated by GULP
_audit_author_name                 Salvador R. G. Balestra
_symmetry_space_group_name_H-M     'P 1             '
_symmetry_Int_Tables_number        1

loop_
_symmetry_equiv_pos_site_id
_symmetry_equiv_pos_as_xyz
_cell_length_a                       17.8132
_cell_length_b                        7.8386
_cell_length_c                       10.4366
_cell_angle_alpha                   89.1067
_cell_angle_beta                    90.5170
_cell_angle_gamma                   89.4431

loop_
_atom_site_label
_atom_site_type_symbol
_atom_site_fract_x
_atom_site_fract_y
_atom_site_fract_z
_atom_site_charge
  Ge     Ge        0.052090000000021    0.000000000000000    0.372269999999958  0.0000
  Ge     Ge        0.447889787215658    0.023685875341041    0.340712153306447  0.0000
  Ge     Ge        0.944842377947174    0.022936113855865    0.620190163557310  0.0000
  Ge     Ge        0.546164266161808    0.050437298242066    0.602446651113511  0.0000
  Ge     Ge        0.551988855575636    0.033407550728214    0.087412767822368  0.0000
  Ge     Ge        0.947347527292033    0.005016605289444    0.120169521153840  0.0000
  Ge     Ge        0.439698717981132    0.031196628739545    0.847282172359662  0.0000
  Ge     Ge        0.053038569368462    0.020554428626680    0.873367947495423  0.0000
  Ge     Ge        0.172805903690161    0.282925982132378    0.258649064928201  0.0000
  Ge     Ge        0.330753952099238    0.739285107658454    0.264263461617078  0.0000
  Ge     Ge        0.823982541355950    0.306920420043778    0.689424285991451  0.0000
  Ge     Ge        0.841802518986050    0.711059865857183    0.695058125846438  0.0000
  Ge     Ge        0.643233154400210    0.365364685708039    0.701610475405170  0.0000
  Ge     Ge        0.150427025698259    0.689916566340506    0.264593745861176  0.0000
  Ge     Ge        0.646680704499953    0.353382030992005    0.011021206006969  0.0000
  Ge     Ge        0.853999282062490    0.693191938184012    0.008663011895553  0.0000
  Ge     Ge        0.153389849691614    0.700624336537483    0.951054106805658  0.0000
  Ge     Ge        0.173557023563521    0.297967678171685    0.944337414710567  0.0000
  Ge     Ge        0.675528171685694    0.753703809212821    0.020222268201444  0.0000
  Ge     Ge        0.826862824909034    0.286980207089819    0.000183276568475  0.0000
  Si     Si        0.665900756559406    0.762003237637076    0.713210561514750  0.0000
  Si     Si        0.348055677112749    0.334246036051727    0.262046633101038  0.0000
  Si     Si        0.349255174951156    0.344280217980325    0.962504316150175  0.0000
  Si     Si        0.331170741589818    0.743700210268966    0.962617774184099  0.0000
  O1     O1        0.126169150880147    0.133210241188563    0.344789722288722  0.0000
  O1     O1        0.382138288291689    0.866118557857461    0.362164899134395  0.0000
  O1     O1        0.876733067762867    0.176678543219364    0.594699050429055  0.0000
  O3     O3        0.616696507402057    0.906761798206128    0.643153322286078  0.0000
  O1     O1        0.900750485060184    0.830733157789640    0.603153324559817  0.0000
  O1     O1        0.580161930682790    0.253722151382162    0.611693236501644  0.0000
  O1     O1        0.085079312122437    0.795870491923536    0.353063611263166  0.0000
  O3     O3        0.406908990464722    0.225889125737599    0.346638723408656  0.0000
  O1     O1        0.022104525917339    0.034567657378990    0.525642896958770  0.0000
  O1     O1        0.520577471215914    0.011641038091010    0.446543879526579  0.0000
  O1     O1        0.974859269143658    0.034787706581329    0.276012365042319  0.0000
  O1     O1        0.481622843992214    0.989963844921748    0.189859307902445  0.0000
  O1     O1        0.977441249718275    0.045762508810617    0.775348576282196  0.0000
  O1     O1        0.465355576034154    0.028087098455523    0.689801889172152  0.0000
  O1     O1        0.586262445776541    0.235828375866577    0.102789552639914  0.0000
  O1     O1        0.922303152484648    0.796865210608547    0.091977975171458  0.0000
  O3     O3        0.408343223043151    0.236797078061785    0.883391354515132  0.0000
  O1     O1        0.093801497262545    0.822253260237065    0.858691242250782  0.0000
  O3     O3        0.374488787224637    0.870922508955041    0.868929136131100  0.0000
  O1     O1        0.125053872770592    0.163199388017099    0.849403225114735  0.0000
  O1     O1        0.627136524406684    0.894817891836056    0.109129939515528  0.0000
  O1     O1        0.870687452383202    0.133452845268274    0.091141550588715  0.0000
  O1     O1        0.519688516487581    0.996224229642955    0.934199609465353  0.0000
  O1     O1        0.022666914305897    0.055878832630027    0.026994177320955  0.0000
  O1     O1        0.155248157539858    0.482694644351953    0.317418057750598  0.0000
  O3     O3        0.342836001954969    0.526127211993486    0.309623694019514  0.0000
  O1     O1        0.835660820388677    0.512575027194365    0.633371899663575  0.0000
  O3     O3        0.651537335987933    0.576819389694462    0.651681302525629  0.0000
  O3     O3        0.268212824165064    0.241604857935478    0.269984059620590  0.0000
  O1     O1        0.237220418295361    0.784331098684168    0.276294541230794  0.0000
  O1     O1        0.729731758846238    0.267237746837213    0.688217776104252  0.0000
  O3     O3        0.753566643666908    0.807514347889457    0.701531654598518  0.0000
  O1     O1        0.145456174381469    0.280815401313451    0.101104661438979  0.0000
  O3     O3        0.360019770222054    0.768341598752495    0.107088370654502  0.0000
  O1     O1        0.857196749853326    0.286346387930863    0.844406106559997  0.0000
  O3     O3        0.644997139045942    0.748085126395222    0.861985786864621  0.0000
  O1     O1        0.877037286979676    0.699729351652183    0.848935058312588  0.0000
  O1     O1        0.612069386780189    0.357177036891197    0.856275131734208  0.0000
  O1     O1        0.122166551218659    0.699955771761492    0.106445433710945  0.0000
  O2     O2        0.373278388024406    0.331741754110274    0.112434429379737  0.0000
  O1     O1        0.659341146570797    0.548714116948323    0.075993751037207  0.0000
  O1     O1        0.845876221286695    0.486243195171919    0.060489210343246  0.0000
  O2     O2        0.344269420300842    0.544880962790374    0.922046129692313  0.0000
  O1     O1        0.155029187820434    0.501493322104777    0.889439820279061  0.0000
  O1     O1        0.732513573426559    0.250997441676839    0.000694080892118  0.0000
  O1     O1        0.769081470684308    0.796639865978229    0.027103075932668  0.0000
  O3     O3        0.269082807559526    0.258494201319333    0.939955146350604  0.0000
  O3     O3        0.243135830079512    0.785384993802809    0.955372225434262  0.0000
