data_c00162.vasp
_audit_creation_method             Generated by GULP
_audit_author_name                 Salvador R. G. Balestra
_symmetry_space_group_name_H-M     'P 1             '
_symmetry_Int_Tables_number        1

loop_
_symmetry_equiv_pos_site_id
_symmetry_equiv_pos_as_xyz
_cell_length_a                       17.7072
_cell_length_b                        7.8227
_cell_length_c                       10.1160
_cell_angle_alpha                   89.3882
_cell_angle_beta                    90.2982
_cell_angle_gamma                   90.9714

loop_
_atom_site_label
_atom_site_type_symbol
_atom_site_fract_x
_atom_site_fract_y
_atom_site_fract_z
_atom_site_charge
  Ge     Ge        0.052090000000021    0.000000000000000    0.372269999999958  0.0000
  Ge     Ge        0.438619919013024    0.051451463885268    0.319794449507848  0.0000
  Ge     Ge        0.944264376401585    0.063487052717024    0.616918524319968  0.0000
  Ge     Ge        0.549719976896963    0.014813714684547    0.568320292963391  0.0000
  Ge     Ge        0.541368024692572    0.991582466104853    0.065822208142280  0.0000
  Ge     Ge        0.938065370042119    0.050842915239753    0.130462155465821  0.0000
  Ge     Ge        0.437104204127563    0.049635843371230    0.811283994704049  0.0000
  Ge     Ge        0.043968751010043    0.000953549897042    0.878735447597522  0.0000
  Ge     Ge        0.167655516590815    0.297092575929214    0.255616583046206  0.0000
  Ge     Ge        0.320260154213876    0.759920544358036    0.249947333677654  0.0000
  Ge     Ge        0.846890382181841    0.379501273485062    0.678845917332805  0.0000
  Ge     Ge        0.819952834718328    0.780495302197609    0.688976015785065  0.0000
  Ge     Ge        0.666125045544000    0.308260113983278    0.678590879467415  0.0000
  Ge     Ge        0.665944647193664    0.277725090816747    0.997131641268728  0.0000
  Ge     Ge        0.818199850034119    0.768516015741585    0.010223069086824  0.0000
  Ge     Ge        0.340829833810059    0.357218846433172    0.939577974996887  0.0000
  Ge     Ge        0.140000930235305    0.681573338915652    0.938327067915234  0.0000
  Ge     Ge        0.318814136589666    0.762323087904235    0.930235958059189  0.0000
  Ge     Ge        0.641408628631643    0.681771359937762    0.006203585031475  0.0000
  Ge     Ge        0.844733019397223    0.362245404648224    0.000849149869933  0.0000
  Si     Si        0.643778796916238    0.704266732094913    0.690693902453895  0.0000
  Si     Si        0.142809388613503    0.691792322178710    0.251524475237358  0.0000
  Si     Si        0.343579437234216    0.365688016954800    0.255293888093832  0.0000
  Si     Si        0.164949004115568    0.284431974578812    0.942622906064750  0.0000
  O1     O1        0.122177269215723    0.151700999892083    0.353256207090233  0.0000
  O1     O1        0.368024031038896    0.901135431296768    0.347958005112355  0.0000
  O1     O1        0.911481260806957    0.266370384587088    0.590329790931195  0.0000
  O3     O3        0.582664739131118    0.814980147370670    0.612004305835643  0.0000
  O1     O1        0.867700907420227    0.927303764365340    0.594882210685787  0.0000
  O1     O1        0.617618067701776    0.172035488237344    0.576587122995496  0.0000
  O3     O3        0.084205744633729    0.798600525660407    0.336638588198523  0.0000
  O3     O3        0.402954265835097    0.255292404123842    0.339004048001006  0.0000
  O1     O1        0.023574867239334    0.007012249260483    0.535107759508566  0.0000
  O1     O1        0.519121013892302    0.011828664884849    0.405822395419344  0.0000
  O1     O1        0.969751137535316    0.048411445309291    0.291548807237015  0.0000
  O1     O1        0.463986157257564    0.035688799050677    0.155405878371378  0.0000
  O1     O1        0.968936166716260    0.050771069310512    0.783259498037249  0.0000
  O1     O1        0.467895868487791    0.059373011307638    0.650686142244512  0.0000
  O1     O1        0.615115292583661    0.134862187051919    0.089967113985539  0.0000
  O1     O1        0.864226725659330    0.908697575745525    0.111888104371668  0.0000
  O1     O1        0.406806654244106    0.249252096636548    0.855612087106869  0.0000
  O1     O1        0.076387353368800    0.797460607587618    0.849532077053817  0.0000
  O1     O1        0.363784271507866    0.905520514479297    0.828298272520965  0.0000
  O3     O3        0.117889433717326    0.149110872279228    0.857941597180154  0.0000
  O1     O1        0.574318695369451    0.787581757183172    0.091748093697994  0.0000
  O1     O1        0.910377857267417    0.254661062916343    0.091693217125554  0.0000
  O1     O1        0.515090621220716    0.996564791445170    0.901381933410043  0.0000
  O1     O1        0.015353953857602    0.996357552643908    0.040675217372636  0.0000
  O3     O3        0.151155221222056    0.502004802647993    0.311631977458915  0.0000
  O3     O3        0.336493984615343    0.554756216152292    0.311247781492213  0.0000
  O1     O1        0.838077590061798    0.583788436001546    0.621922980309788  0.0000
  O3     O3        0.654630642716545    0.519387601669110    0.625819596730290  0.0000
  O3     O3        0.263479633151209    0.263879686760371    0.260472750696783  0.0000
  O3     O3        0.223681705851210    0.790573462473860    0.251729447730209  0.0000
  O1     O1        0.761101391881079    0.271443166905732    0.674938962062500  0.0000
  O3     O3        0.723085950631235    0.810048104455446    0.689544100393054  0.0000
  O3     O3        0.136625216859661    0.273921686709728    0.094356235739979  0.0000
  O1     O1        0.351358988082365    0.783879995617334    0.090233238782024  0.0000
  O1     O1        0.875247774471802    0.390465368225737    0.841611960479034  0.0000
  O3     O3        0.617348370992497    0.666959789781878    0.839493741259056  0.0000
  O1     O1        0.850705611528394    0.791393331165650    0.850687960939700  0.0000
  O1     O1        0.633569319527086    0.271812587808164    0.835982330726893  0.0000
  O3     O3        0.112593506620876    0.673122971338447    0.102812391656404  0.0000
  O3     O3        0.368581399037236    0.380873609602440    0.102730007707607  0.0000
  O1     O1        0.652809224260170    0.478848785115805    0.062539457535020  0.0000
  O1     O1        0.830774106929437    0.561011690683052    0.064553841024972  0.0000
  O1     O1        0.333768577744324    0.558270408015405    0.874858099587551  0.0000
  O3     O3        0.150132274300332    0.475094506734310    0.884912542808991  0.0000
  O1     O1        0.761325203998818    0.243839205164073    0.998945838372598  0.0000
  O1     O1        0.723116468187840    0.803567327013724    0.013713962089368  0.0000
  O3     O3        0.253966329531651    0.249689946946421    0.936323247241025  0.0000
  O1     O1        0.223643362021107    0.793645718767817    0.929270440841141  0.0000
