data_c00135.vasp
_audit_creation_method             Generated by GULP
_audit_author_name                 Salvador R. G. Balestra
_symmetry_space_group_name_H-M     'P 1             '
_symmetry_Int_Tables_number        1

loop_
_symmetry_equiv_pos_site_id
_symmetry_equiv_pos_as_xyz
_cell_length_a                       17.6632
_cell_length_b                        7.8811
_cell_length_c                       10.2077
_cell_angle_alpha                   88.9744
_cell_angle_beta                    91.0581
_cell_angle_gamma                   87.5170

loop_
_atom_site_label
_atom_site_type_symbol
_atom_site_fract_x
_atom_site_fract_y
_atom_site_fract_z
_atom_site_charge
  Ge     Ge        0.052090000000021    0.000000000000000    0.372269999999958  0.0000
  Ge     Ge        0.448745216110561    0.944679802410326    0.396492613934895  0.0000
  Ge     Ge        0.944293013265516    0.955227766866421    0.620076020061488  0.0000
  Ge     Ge        0.548954269138455    0.008235167938071    0.656552193886497  0.0000
  Ge     Ge        0.551196400300489    0.008812256124656    0.150328479788909  0.0000
  Ge     Ge        0.945042302363107    0.949763066629793    0.118544338425881  0.0000
  Ge     Ge        0.440898054079470    0.958989187536052    0.905144548895835  0.0000
  Ge     Ge        0.049953047092785    0.010108460345891    0.871710496786702  0.0000
  Ge     Ge        0.151580845433390    0.308842901108674    0.302047710491736  0.0000
  Ge     Ge        0.354672530295528    0.634233082903399    0.289717183824890  0.0000
  Ge     Ge        0.825097993676138    0.247727357509544    0.734683981673793  0.0000
  Ge     Ge        0.847863045649726    0.646064492348048    0.728968077789181  0.0000
  Ge     Ge        0.641869653709824    0.325078027706746    0.726630864438179  0.0000
  Ge     Ge        0.173172314147471    0.707279428750674    0.302604407835712  0.0000
  Ge     Ge        0.639721577154263    0.326355256170199    0.039157560704880  0.0000
  Ge     Ge        0.844696472275661    0.643393372468927    0.053238095480091  0.0000
  Ge     Ge        0.319381253440995    0.252618906976054    0.967182432916670  0.0000
  Ge     Ge        0.344942747989581    0.645809574561069    0.974136614972131  0.0000
  Ge     Ge        0.138603340434394    0.325379692749554    0.983982799824076  0.0000
  Ge     Ge        0.823326771901049    0.246325816300658    0.050875224968811  0.0000
  Si     Si        0.670851744934083    0.713546733498991    0.720817136889270  0.0000
  Si     Si        0.329474906144236    0.242648970316969    0.280912425202750  0.0000
  Si     Si        0.165638505945161    0.717531546460468    0.992012605549190  0.0000
  Si     Si        0.668193910345949    0.717049197830521    0.031995219570141  0.0000
  O1     O1        0.093225643889767    0.190799037400119    0.395500302836099  0.0000
  O1     O1        0.418936034145052    0.741951808175786    0.380339177903742  0.0000
  O1     O1        0.869101826797608    0.094115247904065    0.644083314070412  0.0000
  O3     O3        0.621543477149710    0.854224984520594    0.640075550451790  0.0000
  O1     O1        0.914918665371187    0.753311692815379    0.647629128974509  0.0000
  O1     O1        0.584089362556021    0.205580178389495    0.631185646004283  0.0000
  O1     O1        0.123018689487175    0.845445652153509    0.397484814697177  0.0000
  O3     O3        0.376887117059181    0.092092660836549    0.354526519394380  0.0000
  O1     O1        0.972615857962685    0.971814078166687    0.459770453837266  0.0000
  O1     O1        0.472712736343284    0.972548608881062    0.558650075805530  0.0000
  O1     O1        0.023418042304973    0.986528373859182    0.209811285670626  0.0000
  O1     O1        0.530361895329694    0.976055922692854    0.311998686126477  0.0000
  O1     O1        0.024388279028342    0.997862296662371    0.709292372741991  0.0000
  O1     O1        0.518844724946271    0.992701262707970    0.815855100294231  0.0000
  O1     O1        0.579784002358077    0.213864251095269    0.133676109051903  0.0000
  O1     O1        0.907769125403104    0.753545590107246    0.142903701343010  0.0000
  O1     O1        0.368223505386069    0.108970018393304    0.876429578024095  0.0000
  O3     O3        0.125796361519406    0.869769558048279    0.907827020622228  0.0000
  O1     O1        0.402004323389458    0.765989297165291    0.880150747623533  0.0000
  O1     O1        0.072944407648917    0.217333859728491    0.898063315685163  0.0000
  O3     O3        0.621587008113197    0.868429854768104    0.097251888811288  0.0000
  O1     O1        0.872031545104699    0.096761683300888    0.144880488365158  0.0000
  O1     O1        0.468518502750255    0.975328054800870    0.067190681910134  0.0000
  O1     O1        0.971625442884431    0.958662459719841    0.956593452679315  0.0000
  O1     O1        0.158772364697210    0.505962717712999    0.363621073514434  0.0000
  O3     O3        0.346421293571669    0.425071398267834    0.342885340157590  0.0000
  O1     O1        0.843567331789606    0.444696568239275    0.670425363707309  0.0000
  O3     O3        0.652039411403316    0.528596365668144    0.665729070971149  0.0000
  O3     O3        0.240765677086803    0.208177417536240    0.291412773116348  0.0000
  O1     O1        0.267890521169272    0.739429117305092    0.305774637412259  0.0000
  O1     O1        0.729437985231207    0.222185369754201    0.735556750115630  0.0000
  O3     O3        0.758839507188007    0.748136071658660    0.707163259518138  0.0000
  O1     O1        0.114298791132724    0.321007025034111    0.145124075078086  0.0000
  O1     O1        0.383160900055493    0.637071274941094    0.130555842728430  0.0000
  O1     O1        0.857738920262684    0.234813869470617    0.894092659937047  0.0000
  O2     O2        0.650458205214296    0.707711752142585    0.875550400333430  0.0000
  O1     O1        0.871394109154550    0.635275597048482    0.892269903999598  0.0000
  O1     O1        0.605058141304163    0.326871532258417    0.881237102332830  0.0000
  O3     O3        0.138318903859945    0.719935530553593    0.141668510310159  0.0000
  O3     O3        0.351416609099109    0.252774523655702    0.129115971572596  0.0000
  O3     O3        0.647072894792967    0.534137905422103    0.091423285363589  0.0000
  O1     O1        0.840058072942015    0.442723156749128    0.114796032633803  0.0000
  O1     O1        0.337309516014181    0.452354947033836    0.906403045074039  0.0000
  O3     O3        0.145620227106254    0.535507561931950    0.932424831276314  0.0000
  O1     O1        0.727570192129984    0.224060426541876    0.046793710522053  0.0000
  O3     O3        0.756094685500367    0.748545874814279    0.055200394993289  0.0000
  O1     O1        0.224776060150287    0.221009573747841    0.961402422848462  0.0000
  O3     O3        0.255293834307456    0.740970914465002    0.991920209651249  0.0000
