data_c00147.vasp
_audit_creation_method             Generated by GULP
_audit_author_name                 Salvador R. G. Balestra
_symmetry_space_group_name_H-M     'P 1             '
_symmetry_Int_Tables_number        1

loop_
_symmetry_equiv_pos_site_id
_symmetry_equiv_pos_as_xyz
_cell_length_a                       17.8009
_cell_length_b                        7.8155
_cell_length_c                       10.5193
_cell_angle_alpha                   88.9367
_cell_angle_beta                    89.7386
_cell_angle_gamma                   89.4118

loop_
_atom_site_label
_atom_site_type_symbol
_atom_site_fract_x
_atom_site_fract_y
_atom_site_fract_z
_atom_site_charge
  Ge     Ge        0.052090000000021    0.000000000000000    0.372269999999958  0.0000
  Ge     Ge        0.449365638425071    0.966529250588061    0.350507021472509  0.0000
  Ge     Ge        0.951032839517711    0.996903062207731    0.628081705364203  0.0000
  Ge     Ge        0.553180876702261    0.970137799585560    0.604003514984474  0.0000
  Ge     Ge        0.550795982267469    0.963446597464414    0.091760171081793  0.0000
  Ge     Ge        0.943384226750649    0.985235045399824    0.128503164586448  0.0000
  Ge     Ge        0.442904303771681    0.976003620444404    0.847910115747881  0.0000
  Ge     Ge        0.052380861932816    0.006451919013707    0.885170382769120  0.0000
  Ge     Ge        0.148929128852184    0.316417027302297    0.266769218326312  0.0000
  Ge     Ge        0.345494535714197    0.661487714318676    0.270766045059845  0.0000
  Ge     Ge        0.848901382715717    0.309434106151691    0.701412868685292  0.0000
  Ge     Ge        0.829444853529451    0.718928572930455    0.709653767714161  0.0000
  Ge     Ge        0.670034624846141    0.259116315453256    0.708321840201978  0.0000
  Ge     Ge        0.329373203739887    0.251828113756602    0.271500476333880  0.0000
  Ge     Ge        0.672944246516420    0.238655873801904    0.016327992221776  0.0000
  Ge     Ge        0.829261217045477    0.700562990779661    0.016690582771215  0.0000
  Ge     Ge        0.328539420109129    0.262602123292918    0.964914115147921  0.0000
  Ge     Ge        0.175655712271504    0.726642156405296    0.958009157914808  0.0000
  Ge     Ge        0.147461294113569    0.324154488490017    0.959519656355327  0.0000
  Ge     Ge        0.650514990846633    0.645569985450360    0.020609465656465  0.0000
  Si     Si        0.653799946952458    0.662665769926031    0.717292760763671  0.0000
  Si     Si        0.170307913961655    0.716519052851079    0.261663044530794  0.0000
  Si     Si        0.350751191169851    0.666880129079421    0.967741470268038  0.0000
  Si     Si        0.848427419341802    0.294885068599714    0.004994660244687  0.0000
  O1     O1        0.087542275342047    0.202633989648467    0.360011271898395  0.0000
  O1     O1        0.406673650740933    0.770550249522444    0.361824996673150  0.0000
  O1     O1        0.914208877003458    0.200478752192355    0.614032075555252  0.0000
  O3     O3        0.595338888641523    0.774085308512925    0.635429361443808  0.0000
  O1     O1        0.877053828400957    0.857865610411684    0.613287721044077  0.0000
  O1     O1        0.614442209147500    0.136550809982257    0.615638958057910  0.0000
  O3     O3        0.121081077731868    0.850922645018453    0.338990744275404  0.0000
  O1     O1        0.380075177118366    0.119033127992614    0.370242833757364  0.0000
  O1     O1        0.024081378167954    0.963955266584242    0.527136456261041  0.0000
  O1     O1        0.524687629688889    0.975581738478271    0.447832036879569  0.0000
  O1     O1        0.972136151295686    0.983362371783639    0.283648888385262  0.0000
  O1     O1        0.481008554675510    0.000534030327674    0.196783156261286  0.0000
  O1     O1        0.983596749108889    0.963676718477153    0.780823666133838  0.0000
  O1     O1        0.472737906331389    0.987521004378735    0.692754461207730  0.0000
  O1     O1        0.627802832409514    0.094445577359614    0.110497032234607  0.0000
  O1     O1        0.879077792400447    0.824522750525552    0.116925023291027  0.0000
  O1     O1        0.374540420261348    0.130435691015302    0.863206478408872  0.0000
  O1     O1        0.131048932278761    0.876079733863713    0.867850836171047  0.0000
  O3     O3        0.410920617764158    0.771957188247286    0.885875506019157  0.0000
  O1     O1        0.084617318619272    0.212172530476375    0.871105684023418  0.0000
  O1     O1        0.584013539059915    0.756216845891289    0.103396227866483  0.0000
  O3     O3        0.907327602895588    0.185734843510457    0.087236461012312  0.0000
  O1     O1        0.518807383335819    0.013924323618695    0.941262826044031  0.0000
  O1     O1        0.020843506106635    0.953287607705533    0.035664618310138  0.0000
  O3     O3        0.158441539182583    0.524607968681376    0.317658031968503  0.0000
  O1     O1        0.341144872777789    0.456707416748128    0.325047263754071  0.0000
  O1     O1        0.844267602133696    0.517178200232773    0.651378007033378  0.0000
  O3     O3        0.663443142563984    0.474162258721570    0.661835983977036  0.0000
  O1     O1        0.234822310724943    0.214149071525995    0.272511526514514  0.0000
  O3     O3        0.257935917571051    0.761825764420539    0.272552489125907  0.0000
  O1     O1        0.763621699141885    0.208996867148910    0.691768366287184  0.0000
  O3     O3        0.733592258300516    0.759241564208685    0.714649313182864  0.0000
  O1     O1        0.115352910332416    0.316332777004646    0.114444836867515  0.0000
  O3     O3        0.376967347212978    0.663154611021165    0.114076964438767  0.0000
  O3     O3        0.877018839653672    0.304923760267406    0.859880452962780  0.0000
  O3     O3        0.624367916119281    0.646997332890000    0.861424880813339  0.0000
  O1     O1        0.860491967157208    0.733144273348401    0.863885237128939  0.0000
  O1     O1        0.641267028593396    0.230901191810276    0.862158091270770  0.0000
  O3     O3        0.145654900236375    0.719632577314950    0.115245001000908  0.0000
  O1     O1        0.360930068464216    0.233144714878519    0.116991519812290  0.0000
  O1     O1        0.656364444657258    0.439842709485085    0.075272519954366  0.0000
  O3     O3        0.838916733436529    0.484574813541288    0.058261332027668  0.0000
  O3     O3        0.342104169562785    0.475624709327343    0.918518075269864  0.0000
  O1     O1        0.155770202839054    0.527293666173261    0.900319484813212  0.0000
  O3     O3        0.768705647167478    0.198948202288518    0.009852743645226  0.0000
  O1     O1        0.735464854404624    0.747108122449722    0.029569863125353  0.0000
  O1     O1        0.234286926462971    0.224597543931198    0.961249406527276  0.0000
  O3     O3        0.270868127617383    0.765033191366213    0.956764159494691  0.0000
