data_c00118.vasp
_audit_creation_method             Generated by GULP
_audit_author_name                 Salvador R. G. Balestra
_symmetry_space_group_name_H-M     'P 1             '
_symmetry_Int_Tables_number        1

loop_
_symmetry_equiv_pos_site_id
_symmetry_equiv_pos_as_xyz
_cell_length_a                       17.6978
_cell_length_b                        7.7412
_cell_length_c                        9.9022
_cell_angle_alpha                   92.3716
_cell_angle_beta                    90.9464
_cell_angle_gamma                   92.7960

loop_
_atom_site_label
_atom_site_type_symbol
_atom_site_fract_x
_atom_site_fract_y
_atom_site_fract_z
_atom_site_charge
  Ge     Ge        0.052090000000021    0.000000000000000    0.372269999999958  0.0000
  Ge     Ge        0.454896516483977    0.088704896855271    0.318251702711379  0.0000
  Ge     Ge        0.940973372343843    0.008048538272466    0.616244649126613  0.0000
  Ge     Ge        0.546839951118881    0.979462641761777    0.571000569089916  0.0000
  Ge     Ge        0.540382617377342    0.990711930112976    0.040009559882553  0.0000
  Ge     Ge        0.930231250511072    0.057042977621280    0.142205801448517  0.0000
  Ge     Ge        0.424210766470517    0.046215195031060    0.790095748367785  0.0000
  Ge     Ge        0.035961674644108    0.957538646500214    0.889721316536997  0.0000
  Ge     Ge        0.168886714981599    0.301226799612667    0.269381454764166  0.0000
  Ge     Ge        0.322638614713933    0.796153034267959    0.251381605788871  0.0000
  Ge     Ge        0.841769192939052    0.321854676775537    0.691984911533158  0.0000
  Ge     Ge        0.632951073284576    0.654399478728741    0.668294280954683  0.0000
  Ge     Ge        0.812919808275259    0.732869552159212    0.679396018970334  0.0000
  Ge     Ge        0.350356851146761    0.388959825117675    0.257999776471142  0.0000
  Ge     Ge        0.809391507283122    0.760266008427075    0.005841840730606  0.0000
  Ge     Ge        0.339063967989488    0.360628481181326    0.928626659951824  0.0000
  Ge     Ge        0.306885182475787    0.766657874247156    0.917619051901952  0.0000
  Ge     Ge        0.159377895151266    0.261631616598279    0.944443684404626  0.0000
  Ge     Ge        0.630388786318774    0.661602225577559    0.004488664550702  0.0000
  Ge     Ge        0.840259477079747    0.354337698148103    0.014223636338942  0.0000
  Si     Si        0.668428541276398    0.273644916514064    0.681535801159486  0.0000
  Si     Si        0.151419929527999    0.694496073810474    0.260151497204090  0.0000
  Si     Si        0.667664221051261    0.287646187164228    0.001403973772203  0.0000
  Si     Si        0.138766466030520    0.654068750318232    0.940002782922184  0.0000
  O1     O1        0.120703757855394    0.162135152974134    0.372352979944310  0.0000
  O1     O1        0.378822424614611    0.944542791010275    0.340318627522026  0.0000
  O1     O1        0.908860390866434    0.212733729051559    0.604263329907165  0.0000
  O1     O1        0.568075925569243    0.767034709275842    0.579100319240988  0.0000
  O1     O1        0.864391673968656    0.866906651118710    0.579307884729182  0.0000
  O3     O3        0.622134406314702    0.093411908253405    0.654111760666676  0.0000
  O3     O3        0.081500547774682    0.802946554646663    0.305225948048035  0.0000
  O1     O1        0.419311595566053    0.289275649105079    0.345364708075560  0.0000
  O1     O1        0.023936336548451    0.974007692927154    0.536782577799085  0.0000
  O1     O1        0.534392334948635    0.041371014165385    0.406489496129926  0.0000
  O1     O1        0.965445170543529    0.045504013558514    0.304274942619779  0.0000
  O1     O1        0.478363686033289    0.075216305610510    0.148858372606728  0.0000
  O1     O1        0.960756272548850    0.958961610864762    0.783616199258977  0.0000
  O1     O1        0.458977826885865    0.029229741301946    0.629551113151598  0.0000
  O3     O3        0.627206184147408    0.107357195443812    0.031472531965410  0.0000
  O1     O1        0.852423363494363    0.921032156522699    0.107029096390556  0.0000
  O1     O1        0.402253305058068    0.254697805711715    0.829919175903013  0.0000
  O3     O3        0.065248059734530    0.745228713569693    0.894278306352976  0.0000
  O1     O1        0.346044614456572    0.912103612302232    0.811513369745199  0.0000
  O1     O1        0.106879650886323    0.106965048808453    0.851559317316854  0.0000
  O1     O1        0.565205278845758    0.787224999381380    0.082118975771515  0.0000
  O1     O1        0.903989045144281    0.264365313682570    0.118711382993876  0.0000
  O1     O1        0.500079711245183    0.980876032245666    0.881788146385048  0.0000
  O1     O1        0.007762541718083    0.004047420173539    0.051012854911755  0.0000
  O3     O3        0.154912744809009    0.512654637103820    0.331360029391573  0.0000
  O1     O1        0.343222514055783    0.598332779138788    0.312000811801445  0.0000
  O1     O1        0.857080054461180    0.539838973731325    0.685059226429545  0.0000
  O3     O3        0.619818230693885    0.430268408358615    0.632344084858901  0.0000
  O1     O1        0.264415718055268    0.274893768191624    0.271071422704301  0.0000
  O3     O3        0.226876356489131    0.818346252995533    0.282281228131455  0.0000
  O3     O3        0.751583016113019    0.266567474461197    0.621258423694210  0.0000
  O1     O1        0.722602660987974    0.701228063358420    0.614126604145293  0.0000
  O1     O1        0.133177072822219    0.246532631282708    0.110336474296880  0.0000
  O1     O1        0.339611726138605    0.812165142580282    0.080773477653240  0.0000
  O1     O1        0.851528369861524    0.260203499357873    0.856031344546217  0.0000
  O1     O1        0.620241175451967    0.704395235232582    0.835635474758066  0.0000
  O1     O1        0.802798967416699    0.818765494134901    0.841296146071000  0.0000
  O2     O2        0.686736003158146    0.320294508413209    0.842215001330680  0.0000
  O2     O2        0.149525788807007    0.627133923883605    0.101911438000176  0.0000
  O1     O1        0.373720617884186    0.390139255633606    0.090039703013639  0.0000
  O3     O3        0.613766770283003    0.444417323810691    0.039939603529561  0.0000
  O1     O1        0.858366377209108    0.573006182839336    0.013149726788741  0.0000
  O1     O1        0.327424088531755    0.560095020660910    0.865618768838999  0.0000
  O3     O3        0.140960940097415    0.461384557704330    0.877375154898748  0.0000
  O3     O3        0.749059516748891    0.307635646417962    0.073522653193129  0.0000
  O1     O1        0.720130756527871    0.714727067385834    0.063120685538856  0.0000
  O1     O1        0.254808657079603    0.238562296206014    0.932359906924776  0.0000
  O3     O3        0.209921554346155    0.780013817699436    0.903136313053991  0.0000
