data_c00168.vasp
_audit_creation_method             Generated by GULP
_audit_author_name                 Salvador R. G. Balestra
_symmetry_space_group_name_H-M     'P 1             '
_symmetry_Int_Tables_number        1

loop_
_symmetry_equiv_pos_site_id
_symmetry_equiv_pos_as_xyz
_cell_length_a                       17.6824
_cell_length_b                        7.7994
_cell_length_c                       10.2520
_cell_angle_alpha                   89.4755
_cell_angle_beta                    90.7664
_cell_angle_gamma                   91.1518

loop_
_atom_site_label
_atom_site_type_symbol
_atom_site_fract_x
_atom_site_fract_y
_atom_site_fract_z
_atom_site_charge
  Ge     Ge        0.052090000000021    0.000000000000000    0.372269999999958  0.0000
  Ge     Ge        0.453771732898515    0.044680845564884    0.331638391662210  0.0000
  Ge     Ge        0.943889343063957    0.054088316810534    0.618823486587142  0.0000
  Ge     Ge        0.555767630191703    0.003268139861752    0.587519730444376  0.0000
  Ge     Ge        0.552259308125317    0.984706727706424    0.070462139506235  0.0000
  Ge     Ge        0.942468848336940    0.045143710942098    0.124495304392576  0.0000
  Ge     Ge        0.442600773714369    0.051891607082373    0.821387601933975  0.0000
  Ge     Ge        0.046509467848971    0.988872394307275    0.875112440359009  0.0000
  Ge     Ge        0.175210079860482    0.282230819150597    0.262549605535419  0.0000
  Ge     Ge        0.326482314478251    0.767730571345622    0.258804387741639  0.0000
  Ge     Ge        0.844877508490800    0.367315868072867    0.686713975819234  0.0000
  Ge     Ge        0.822313470194105    0.769578083565397    0.695448344523198  0.0000
  Ge     Ge        0.146514776030155    0.686148665842770    0.256959073032808  0.0000
  Ge     Ge        0.355284021689392    0.362300424626973    0.261660161270465  0.0000
  Ge     Ge        0.672738602933312    0.280382065795679    0.002946185189173  0.0000
  Ge     Ge        0.826037226888393    0.750418135261625    0.013128591128503  0.0000
  Ge     Ge        0.351193863059929    0.361011723572041    0.944778885554803  0.0000
  Ge     Ge        0.144879170322523    0.675052658778684    0.938923180423446  0.0000
  Ge     Ge        0.322451264658087    0.767861014746261    0.941613457539471  0.0000
  Ge     Ge        0.172494908334923    0.272229122821839    0.946385532245213  0.0000
  Si     Si        0.646787529916139    0.691361028846240    0.708113882684181  0.0000
  Si     Si        0.668630894170680    0.296038250161792    0.695371581502805  0.0000
  Si     Si        0.650305624914985    0.677490800512645    0.013892211795408  0.0000
  Si     Si        0.849195683620180    0.352346314848571    0.999308753396416  0.0000
  O1     O1        0.128458775499871    0.136021247852448    0.358984135542152  0.0000
  O1     O1        0.377886665833914    0.906008795898891    0.354461303106444  0.0000
  O1     O1        0.908388099188028    0.256314062771424    0.598474317958577  0.0000
  O3     O3        0.584529370483191    0.798583992982972    0.631113725993414  0.0000
  O1     O1        0.868020026306493    0.914535279199056    0.598301854559828  0.0000
  O3     O3        0.622524247004454    0.167113382611558    0.603027155661318  0.0000
  O1     O1        0.078530389892365    0.795096730410790    0.338318650082102  0.0000
  O1     O1        0.421474172643404    0.249376118269274    0.349049146899610  0.0000
  O1     O1        0.021516240746580    0.008958968698049    0.531795533684023  0.0000
  O1     O1        0.531487209833746    0.999568591879419    0.424501203568461  0.0000
  O1     O1        0.973811019520915    0.060640494852945    0.283174807299672  0.0000
  O1     O1        0.479118417324444    0.018309609929594    0.170247796572381  0.0000
  O1     O1        0.970269326430017    0.035364788376499    0.781492124775586  0.0000
  O1     O1        0.472785646655323    0.047112746750691    0.662615179285064  0.0000
  O1     O1        0.623929380766947    0.136277140320043    0.094613993062980  0.0000
  O1     O1        0.872409371883334    0.889654233698167    0.114276137898526  0.0000
  O1     O1        0.416500552903877    0.257284368576759    0.855134962520782  0.0000
  O1     O1        0.079072288482091    0.785210790964212    0.849791548359764  0.0000
  O1     O1        0.367231039021754    0.913330061808905    0.842564603155445  0.0000
  O1     O1        0.120953451624561    0.131737296495041    0.853367520428208  0.0000
  O3     O3        0.589481891597817    0.780691866728137    0.093290277819918  0.0000
  O3     O3        0.911634896906783    0.245614584753599    0.076170998441530  0.0000
  O1     O1        0.520114727421617    0.995125571502260    0.912453822833833  0.0000
  O1     O1        0.019590850094386    0.992072125068801    0.036549956731153  0.0000
  O1     O1        0.160493475751980    0.485153056073693    0.321383139330791  0.0000
  O1     O1        0.341699847039791    0.563145831817056    0.319144068018318  0.0000
  O1     O1        0.841622992365125    0.572034240230088    0.631610782746478  0.0000
  O2     O2        0.654952218341736    0.496862115374603    0.655490058191032  0.0000
  O1     O1        0.270603457991317    0.247580136784862    0.262830377600022  0.0000
  O1     O1        0.230816832395708    0.802125899719131    0.262046208676318  0.0000
  O3     O3        0.757199203435251    0.262852994962939    0.681965427326876  0.0000
  O3     O3        0.725463784096922    0.795013382904325    0.691811714590091  0.0000
  O1     O1        0.141513858331503    0.261459667738349    0.105032163478584  0.0000
  O1     O1        0.356080003572708    0.783416141834614    0.099205477823666  0.0000
  O3     O3        0.872450059529604    0.375695380271977    0.849473089423864  0.0000
  O2     O2        0.626138384855883    0.675874919647912    0.860268049101956  0.0000
  O1     O1        0.853427189862074    0.786626570969528    0.855130561300498  0.0000
  O3     O3        0.641665065690484    0.261031935007340    0.842376675286229  0.0000
  O1     O1        0.117655522656422    0.654311475345395    0.099052320349114  0.0000
  O1     O1        0.383940622257492    0.379088466947188    0.102298696133006  0.0000
  O3     O3        0.655727851132029    0.483715877116184    0.062883250770170  0.0000
  O3     O3        0.843081708388555    0.540100967607259    0.060283118426617  0.0000
  O1     O1        0.335736006508269    0.562656180779836    0.884965393862808  0.0000
  O1     O1        0.158648197138405    0.475093882449708    0.880845289895890  0.0000
  O3     O3        0.769016126188414    0.249473936195634    0.008295445459975  0.0000
  O3     O3        0.729941685488865    0.779527146104275    0.025037095357175  0.0000
  O1     O1        0.268024566175907    0.240112162268353    0.945243540668374  0.0000
  O1     O1        0.226959555521858    0.799129216073280    0.940864508998774  0.0000
