data_c00166.vasp
_audit_creation_method             Generated by GULP
_audit_author_name                 Salvador R. G. Balestra
_symmetry_space_group_name_H-M     'P 1             '
_symmetry_Int_Tables_number        1

loop_
_symmetry_equiv_pos_site_id
_symmetry_equiv_pos_as_xyz
_cell_length_a                       17.8679
_cell_length_b                        7.8516
_cell_length_c                       10.3382
_cell_angle_alpha                   90.0787
_cell_angle_beta                    90.6580
_cell_angle_gamma                   89.6273

loop_
_atom_site_label
_atom_site_type_symbol
_atom_site_fract_x
_atom_site_fract_y
_atom_site_fract_z
_atom_site_charge
  Ge     Ge        0.052090000000021    0.000000000000000    0.372269999999958  0.0000
  Ge     Ge        0.442226139689186    0.029500427141447    0.334389148212141  0.0000
  Ge     Ge        0.943949929377379    0.010904226581793    0.619547921961481  0.0000
  Ge     Ge        0.548728969512251    0.037798626207390    0.588397491864400  0.0000
  Ge     Ge        0.548807933577158    0.034298718683661    0.083411183561629  0.0000
  Ge     Ge        0.939164817368117    0.010940009698771    0.127447234379045  0.0000
  Ge     Ge        0.442117609904570    0.029435868689508    0.835758543370793  0.0000
  Ge     Ge        0.045003926573117    0.005958003466970    0.880198698060167  0.0000
  Ge     Ge        0.166473115991389    0.293924181194153    0.261685886949041  0.0000
  Ge     Ge        0.326052777961890    0.738859640443626    0.265764821205480  0.0000
  Ge     Ge        0.827297888178380    0.298589021465240    0.695403066321718  0.0000
  Ge     Ge        0.839003595256928    0.706346122714187    0.696741766250555  0.0000
  Ge     Ge        0.646991720026192    0.350379523808618    0.698873776964403  0.0000
  Ge     Ge        0.645932180113469    0.351368745930843    0.011185081372119  0.0000
  Ge     Ge        0.345147037346782    0.340889350866596    0.956119375406749  0.0000
  Ge     Ge        0.146591237108193    0.690653307893631    0.952888898568868  0.0000
  Ge     Ge        0.324049095414313    0.750278075057254    0.952756861038534  0.0000
  Ge     Ge        0.167891926495947    0.282282341664766    0.947400813651762  0.0000
  Ge     Ge        0.669696633058484    0.754007222290128    0.013287357894781  0.0000
  Ge     Ge        0.826667873246822    0.302621522898726    0.007605768508704  0.0000
  Si     Si        0.664188036421840    0.750886161877262    0.704440394391208  0.0000
  Si     Si        0.149670509280040    0.692212985806485    0.261568033527285  0.0000
  Si     Si        0.342400174724328    0.341984771804502    0.266450469682006  0.0000
  Si     Si        0.844634913964997    0.705713069484560    0.005212022189910  0.0000
  O1     O1        0.116130163925559    0.159655719557830    0.355477290077379  0.0000
  O1     O1        0.376468922760651    0.874302716035559    0.361553776433519  0.0000
  O1     O1        0.878937094194148    0.170695969725734    0.595803440315292  0.0000
  O3     O3        0.614665064466014    0.882399166303196    0.622419174824592  0.0000
  O1     O1        0.897806740627239    0.820601390885061    0.603009265118210  0.0000
  O1     O1        0.586647376971296    0.236795068059477    0.603395176943012  0.0000
  O3     O3        0.092851677306214    0.803485235681429    0.345301786322567  0.0000
  O3     O3        0.399602601434816    0.227861878765803    0.349968256800551  0.0000
  O1     O1        0.023048422168466    0.014273209071946    0.530385463553011  0.0000
  O1     O1        0.519783566061482    0.012882910740350    0.430424646603351  0.0000
  O1     O1        0.970309296364799    0.017865725071155    0.285136887421118  0.0000
  O1     O1        0.473591004481390    0.003251364367934    0.178647271146706  0.0000
  O1     O1        0.971007780928805    0.034023345716980    0.779580758569591  0.0000
  O1     O1        0.468756311287337    0.020602192224609    0.677215450610824  0.0000
  O1     O1        0.584422863865386    0.235552266871707    0.100852133625614  0.0000
  O3     O3        0.903860754721601    0.811500582902188    0.088991044805288  0.0000
  O1     O1        0.413169469811314    0.232493149905093    0.877052051288881  0.0000
  O1     O1        0.080823059418837    0.802415312068193    0.867516745193463  0.0000
  O1     O1        0.370908598209710    0.887353569974046    0.855610771352136  0.0000
  O1     O1        0.116591753456351    0.148168905556874    0.853265374016230  0.0000
  O1     O1        0.623376746422379    0.895599583688386    0.106916295987306  0.0000
  O1     O1        0.873650384417759    0.170015554760838    0.110988469699004  0.0000
  O1     O1        0.519821208039366    0.986403730978743    0.928028175014136  0.0000
  O1     O1        0.016337324129950    0.045645191134308    0.035925348464618  0.0000
  O3     O3        0.154562222400705    0.501582536876875    0.316466140163756  0.0000
  O3     O3        0.338399402884910    0.532168801591022    0.322204672523257  0.0000
  O1     O1        0.836734602989359    0.503748122515180    0.640359142673153  0.0000
  O3     O3        0.654501860559096    0.559963993122186    0.648521198783904  0.0000
  O3     O3        0.261639936272078    0.251370205010056    0.268618410993080  0.0000
  O3     O3        0.230884363109753    0.781166851444502    0.266456576191967  0.0000
  O1     O1        0.733540351149059    0.254147587107807    0.693696370711843  0.0000
  O3     O3        0.751028527077582    0.801185379009650    0.695286282800833  0.0000
  O1     O1        0.137738728743881    0.270809381350192    0.105087585616903  0.0000
  O1     O1        0.356020545033105    0.763806563287388    0.109948240118037  0.0000
  O1     O1        0.859038131222671    0.280275108748216    0.853149333983204  0.0000
  O3     O3        0.639385350317578    0.752134605286160    0.853124840773865  0.0000
  O3     O3        0.870460302116052    0.704001384136542    0.856539325606304  0.0000
  O1     O1        0.613585311260553    0.345090517251687    0.853461202023214  0.0000
  O3     O3        0.120280773639835    0.683660966351832    0.114303402020554  0.0000
  O3     O3        0.369566677706223    0.352954280269213    0.118736297493442  0.0000
  O1     O1        0.652389146934667    0.552981367718295    0.071017996646663  0.0000
  O3     O3        0.837850184238486    0.513810463095835    0.056163562483532  0.0000
  O1     O1        0.336380899389811    0.544013233260927    0.898867435623679  0.0000
  O1     O1        0.155877638316083    0.489286450618613    0.894368424861907  0.0000
  O1     O1        0.733250722416304    0.257580756216266    0.010346591320799  0.0000
  O3     O3        0.764140652308589    0.798414807716780    0.015539350638060  0.0000
  O1     O1        0.261591610560516    0.235011816916872    0.941122442753363  0.0000
  O1     O1        0.230281366773763    0.796767528717000    0.947379902382646  0.0000
