data_c00188.vasp
_audit_creation_method             Generated by GULP
_audit_author_name                 Salvador R. G. Balestra
_symmetry_space_group_name_H-M     'P 1             '
_symmetry_Int_Tables_number        1

loop_
_symmetry_equiv_pos_site_id
_symmetry_equiv_pos_as_xyz
_cell_length_a                       17.8127
_cell_length_b                        7.7559
_cell_length_c                       10.5127
_cell_angle_alpha                   89.3195
_cell_angle_beta                    90.7434
_cell_angle_gamma                   89.5973

loop_
_atom_site_label
_atom_site_type_symbol
_atom_site_fract_x
_atom_site_fract_y
_atom_site_fract_z
_atom_site_charge
  Ge     Ge        0.052090000000021    0.000000000000000    0.372269999999958  0.0000
  Ge     Ge        0.448635659147109    0.031001934333411    0.371048466796606  0.0000
  Ge     Ge        0.946260784475031    0.990898840598157    0.620418529801167  0.0000
  Ge     Ge        0.553881361034013    0.030665528356413    0.626216501376177  0.0000
  Ge     Ge        0.548651673883641    0.027025483167877    0.114785001057966  0.0000
  Ge     Ge        0.951100223041783    0.004927844736896    0.112809725851496  0.0000
  Ge     Ge        0.442926885244711    0.036358656353441    0.866355729468973  0.0000
  Ge     Ge        0.056521230008085    0.009276216993331    0.869157797835131  0.0000
  Ge     Ge        0.174018240872266    0.274469546854924    0.289595959889366  0.0000
  Ge     Ge        0.329511339985056    0.749787176049277    0.295111431574369  0.0000
  Ge     Ge        0.824710996140725    0.276256098963474    0.735314959325862  0.0000
  Ge     Ge        0.844806373661020    0.682608315052758    0.721126157348465  0.0000
  Ge     Ge        0.151594178920245    0.685243016291797    0.298313980350228  0.0000
  Ge     Ge        0.646320515533887    0.343798515293585    0.039787790406735  0.0000
  Ge     Ge        0.851678353287818    0.689377551446427    0.033179371793289  0.0000
  Ge     Ge        0.351608169005193    0.353072084481607    0.983196260858807  0.0000
  Ge     Ge        0.324466578143523    0.765334456204065    0.987006062346362  0.0000
  Ge     Ge        0.172884050700939    0.291407844739867    0.982226861153261  0.0000
  Ge     Ge        0.673793950992028    0.759060081491370    0.034205377612214  0.0000
  Ge     Ge        0.824595737426497    0.279680264418667    0.045576419979801  0.0000
  Si     Si        0.668658993984258    0.740790594850812    0.733138130306053  0.0000
  Si     Si        0.648586049281870    0.336887821879797    0.739911895848161  0.0000
  Si     Si        0.349142288897821    0.341818501992097    0.285789563401865  0.0000
  Si     Si        0.149537977531893    0.697585062582291    0.994817993778693  0.0000
  O1     O1        0.127640310037698    0.136634987249214    0.387973386730742  0.0000
  O1     O1        0.382412602857872    0.873230190503768    0.395436088606481  0.0000
  O1     O1        0.872242582229710    0.125813442827425    0.651441646870404  0.0000
  O3     O3        0.617938179989116    0.862899791880953    0.643099057112959  0.0000
  O1     O1        0.908194331961061    0.789067507012713    0.629189385377585  0.0000
  O3     O3        0.592279213148442    0.232567118730234    0.650448749556753  0.0000
  O1     O1        0.086414928373604    0.793033385018288    0.385943009952308  0.0000
  O3     O3        0.406670964618612    0.233511191448041    0.374345700450726  0.0000
  O1     O1        0.978158847493649    0.033443536150813    0.469371450037646  0.0000
  O1     O1        0.524423835679086    0.023580931637469    0.470516578917940  0.0000
  O1     O1        0.021949036105729    0.037140518660014    0.217831550884410  0.0000
  O1     O1        0.480766487780046    0.987984411664333    0.221120887186498  0.0000
  O1     O1        0.025024920818571    0.009872132585616    0.714392973193504  0.0000
  O1     O1        0.473941882931574    0.011279097648394    0.713882777247919  0.0000
  O1     O1        0.579767176260080    0.236425119266784    0.124259086245475  0.0000
  O1     O1        0.918204790720765    0.797113724386636    0.118806385494056  0.0000
  O1     O1        0.418112672542969    0.246580258134831    0.898966787035119  0.0000
  O3     O3        0.088871278929763    0.805029121438930    0.912940506259038  0.0000
  O1     O1        0.363990330359661    0.912788652736755    0.888220752354125  0.0000
  O1     O1        0.124653361303483    0.163695849167607    0.879240742381943  0.0000
  O1     O1        0.626551162840175    0.894392832791336    0.130343024631863  0.0000
  O1     O1        0.875941361951371    0.141309928274778    0.138480861763131  0.0000
  O1     O1        0.514056373993284    0.973627392508115    0.966752902691206  0.0000
  O1     O1        0.981789820862660    0.056545389391570    0.962316560993791  0.0000
  O1     O1        0.158620781748986    0.477394589970173    0.349108622576702  0.0000
  O3     O3        0.337947469168509    0.532548518850546    0.338042995531997  0.0000
  O1     O1        0.841034092746242    0.475682142210558    0.669092932608303  0.0000
  O2     O2        0.657991671005030    0.537698164114193    0.698549689500753  0.0000
  O3     O3        0.270132236797123    0.240142103798189    0.283934786846116  0.0000
  O1     O1        0.235401141465408    0.793760592193812    0.307795399577777  0.0000
  O3     O3        0.728775431151178    0.241605262125146    0.734577003245374  0.0000
  O3     O3        0.756295666822518    0.780135888569237    0.716548462550453  0.0000
  O1     O1        0.142468722358187    0.257945075639805    0.134561543392130  0.0000
  O1     O1        0.357112295823332    0.782759663532552    0.140792667418568  0.0000
  O1     O1        0.854302690682631    0.271920554293475    0.890235037404628  0.0000
  O3     O3        0.643374633786159    0.772945521994576    0.876371554942300  0.0000
  O1     O1        0.877290758091044    0.687233933546647    0.875758026832081  0.0000
  O3     O3        0.616797025303047    0.328849085381691    0.881569043839516  0.0000
  O3     O3        0.122283203305751    0.683664428607578    0.139649019896323  0.0000
  O3     O3        0.379705820584981    0.351191001267545    0.142441340018971  0.0000
  O1     O1        0.657074837859600    0.550416418211217    0.086320935658238  0.0000
  O1     O1        0.838993483623238    0.488513302231123    0.095188967187522  0.0000
  O1     O1        0.344197660723562    0.562072256855679    0.931977419764886  0.0000
  O3     O3        0.160245562238323    0.507618382831561    0.939529928935795  0.0000
  O1     O1        0.730866207310390    0.235950162752916    0.052986377235257  0.0000
  O1     O1        0.767498829771605    0.800976675050734    0.038605900924131  0.0000
  O1     O1        0.266995167559344    0.249587255827157    0.971263289080337  0.0000
  O3     O3        0.228290025884868    0.798430100761720    0.991734231027173  0.0000
