data_c00157.vasp
_audit_creation_method             Generated by GULP
_audit_author_name                 Salvador R. G. Balestra
_symmetry_space_group_name_H-M     'P 1             '
_symmetry_Int_Tables_number        1

loop_
_symmetry_equiv_pos_site_id
_symmetry_equiv_pos_as_xyz
_cell_length_a                       17.6375
_cell_length_b                        7.8361
_cell_length_c                       10.2382
_cell_angle_alpha                   90.5820
_cell_angle_beta                    89.9440
_cell_angle_gamma                   88.4639

loop_
_atom_site_label
_atom_site_type_symbol
_atom_site_fract_x
_atom_site_fract_y
_atom_site_fract_z
_atom_site_charge
  Ge     Ge        0.052090000000021    0.000000000000000    0.372269999999958  0.0000
  Ge     Ge        0.449782500330729    0.953918944226978    0.383315842054145  0.0000
  Ge     Ge        0.948311766479438    0.963552019592132    0.628982323480644  0.0000
  Ge     Ge        0.555805023815455    0.010581170103355    0.631666167561245  0.0000
  Ge     Ge        0.547423486724472    0.026677319925991    0.124427912369376  0.0000
  Ge     Ge        0.945656887893958    0.963085129615417    0.118079170125936  0.0000
  Ge     Ge        0.443588066738032    0.952577233156348    0.872030165801862  0.0000
  Ge     Ge        0.056457898188781    0.012513646978610    0.874239960427088  0.0000
  Ge     Ge        0.147452319791794    0.318049167532581    0.304426878216965  0.0000
  Ge     Ge        0.349433510433184    0.642070903471693    0.311869244361929  0.0000
  Ge     Ge        0.826791254336559    0.253056012549206    0.741395892992090  0.0000
  Ge     Ge        0.850792228401611    0.653580033673392    0.745798982494994  0.0000
  Ge     Ge        0.644882864156927    0.332502435688985    0.747422834015357  0.0000
  Ge     Ge        0.328044205027721    0.240089955933532    0.308738963093156  0.0000
  Ge     Ge        0.645194617697141    0.338664775174139    0.064188053277630  0.0000
  Ge     Ge        0.325297810862431    0.238505493553978    0.992500238242662  0.0000
  Ge     Ge        0.172946553571315    0.714925245639132    0.994473427443905  0.0000
  Ge     Ge        0.353652816328687    0.639708589104802    0.992209746242354  0.0000
  Ge     Ge        0.672983273519032    0.737914962159587    0.055124145722415  0.0000
  Ge     Ge        0.826349863081555    0.259968483095416    0.057331718694796  0.0000
  Si     Si        0.673477859610184    0.727141951269715    0.744381638267614  0.0000
  Si     Si        0.172376647320548    0.715861167326354    0.304715591335363  0.0000
  Si     Si        0.848143001780963    0.653751630147988    0.057650179958035  0.0000
  Si     Si        0.147409973724083    0.317448162498552    0.997779514494057  0.0000
  O1     O1        0.085677245606128    0.202939931447544    0.394656345686130  0.0000
  O1     O1        0.411575292453619    0.756909861959275    0.403413515612080  0.0000
  O1     O1        0.873057815702236    0.103783364136986    0.645979569997917  0.0000
  O3     O3        0.630641379021491    0.869975155822318    0.659907846051958  0.0000
  O1     O1        0.919173684368093    0.762821444648164    0.668677381595725  0.0000
  O1     O1        0.581441569500007    0.217518975587842    0.657720342633402  0.0000
  O3     O3        0.125415151957149    0.849510617412860    0.394029077602141  0.0000
  O1     O1        0.378012647357487    0.103858290868139    0.407343279009179  0.0000
  O1     O1        0.975753485201839    0.961559419026554    0.467146954282137  0.0000
  O1     O1        0.529987834515015    0.989014611238120    0.469853983322708  0.0000
  O1     O1        0.023694390902012    0.985659387258807    0.211626113253094  0.0000
  O1     O1        0.474281976698994    0.970791039083219    0.219704954541842  0.0000
  O1     O1        0.028428449274379    0.016526290022229    0.713508838988296  0.0000
  O1     O1        0.474283532711308    0.960746085144364    0.713054642009987  0.0000
  O1     O1        0.581007810116493    0.227918851232896    0.153384749538053  0.0000
  O3     O3        0.907712698216306    0.761953932710473    0.138641161484572  0.0000
  O1     O1        0.364254725846395    0.082036460321343    0.895211481342667  0.0000
  O1     O1        0.124287792192236    0.854618647488155    0.897832738209872  0.0000
  O1     O1        0.421081123943397    0.746272619295358    0.908034810822027  0.0000
  O3     O3        0.089715082459188    0.213695332465474    0.909386486236413  0.0000
  O1     O1        0.624970407303765    0.888801965387420    0.142504018455542  0.0000
  O1     O1        0.878089538983780    0.120565176742991    0.150832778622043  0.0000
  O1     O1        0.518112857941712    0.020551958551192    0.964017032098094  0.0000
  O1     O1        0.975083587333515    0.973241017178578    0.958054706863674  0.0000
  O3     O3        0.158882187069838    0.525062520479074    0.357835024570049  0.0000
  O1     O1        0.341756902597353    0.442443751079248    0.371452641485689  0.0000
  O1     O1        0.844685205011852    0.452739371620404    0.681492018635147  0.0000
  O3     O3        0.656623753199373    0.538062226354469    0.689294849122039  0.0000
  O1     O1        0.232642620070989    0.207167609801294    0.309569511036607  0.0000
  O3     O3        0.261633333331463    0.749871902926822    0.308777551816476  0.0000
  O1     O1        0.730859811349981    0.225087616651229    0.740363551750215  0.0000
  O3     O3        0.763027920699061    0.759177815918929    0.738071057735065  0.0000
  O3     O3        0.115216100889369    0.327928176114932    0.144656634021043  0.0000
  O1     O1        0.380289833393954    0.626309462150444    0.153044055936982  0.0000
  O1     O1        0.858295273123756    0.234695202887524    0.899584414281201  0.0000
  O3     O3        0.643692162929119    0.740971560219495    0.893052566643942  0.0000
  O3     O3        0.874722205675592    0.627437379883259    0.908195708697339  0.0000
  O1     O1        0.613810679148419    0.346686446299896    0.904808142007624  0.0000
  O3     O3        0.143713889824825    0.732980112966870    0.155449759870276  0.0000
  O1     O1        0.359970115966879    0.223464233966308    0.149252008020833  0.0000
  O1     O1        0.653803938718076    0.541900154067421    0.120899629818344  0.0000
  O3     O3        0.837022480499632    0.468043416207232    0.116602616334305  0.0000
  O1     O1        0.345776983916148    0.435955596835011    0.931930798725166  0.0000
  O3     O3        0.158121478310994    0.506009625786687    0.942597924139748  0.0000
  O1     O1        0.731011447500436    0.227058552186415    0.063023143112977  0.0000
  O3     O3        0.769522903119839    0.765124582128408    0.057895864178765  0.0000
  O3     O3        0.228196609985953    0.216154239159956    0.000784282497798  0.0000
  O1     O1        0.267839583207475    0.749308612785698    0.982338940226463  0.0000
