data_c00184.vasp
_audit_creation_method             Generated by GULP
_audit_author_name                 Salvador R. G. Balestra
_symmetry_space_group_name_H-M     'P 1             '
_symmetry_Int_Tables_number        1

loop_
_symmetry_equiv_pos_site_id
_symmetry_equiv_pos_as_xyz
_cell_length_a                       17.6988
_cell_length_b                        7.8021
_cell_length_c                       10.1701
_cell_angle_alpha                   88.6777
_cell_angle_beta                    90.8934
_cell_angle_gamma                   90.9694

loop_
_atom_site_label
_atom_site_type_symbol
_atom_site_fract_x
_atom_site_fract_y
_atom_site_fract_z
_atom_site_charge
  Ge     Ge        0.052090000000021    0.000000000000000    0.372269999999958  0.0000
  Ge     Ge        0.445333938620847    0.049601021404340    0.371545402961385  0.0000
  Ge     Ge        0.942604324750672    0.063626904396227    0.615184792928186  0.0000
  Ge     Ge        0.553346058550344    0.018649714547315    0.627823209526117  0.0000
  Ge     Ge        0.553706109856495    0.994238327887484    0.128797572970102  0.0000
  Ge     Ge        0.941749845633052    0.049320080387404    0.123253280616574  0.0000
  Ge     Ge        0.447493201423960    0.064682731344582    0.877071909362540  0.0000
  Ge     Ge        0.045086669183714    0.000271441722122    0.872916609692957  0.0000
  Ge     Ge        0.173868440303354    0.283762082581501    0.260998874229576  0.0000
  Ge     Ge        0.326055206758642    0.757849998057688    0.261947546170953  0.0000
  Ge     Ge        0.844397719431292    0.377493084577575    0.680622578970192  0.0000
  Ge     Ge        0.823382389881661    0.777301254270551    0.695132295256238  0.0000
  Ge     Ge        0.145253922336847    0.685268716621611    0.260056300813203  0.0000
  Ge     Ge        0.673987953758151    0.278941206244611    0.003105130777942  0.0000
  Ge     Ge        0.825126187561440    0.757465433050772    0.011707344168862  0.0000
  Ge     Ge        0.346602144857823    0.373255571163883    0.938591483814506  0.0000
  Ge     Ge        0.146259075005553    0.688771458645786    0.938462788362782  0.0000
  Ge     Ge        0.323466720238572    0.778698525407175    0.944132899931670  0.0000
  Ge     Ge        0.170520724417140    0.283574527224363    0.941529007572562  0.0000
  Ge     Ge        0.644329633556005    0.684876188011556    0.009707713245585  0.0000
  Si     Si        0.646139411448013    0.700943453448303    0.700640566457191  0.0000
  Si     Si        0.669331089542147    0.306957044257857    0.689954022699955  0.0000
  Si     Si        0.349747567708605    0.360995407075556    0.252906714920253  0.0000
  Si     Si        0.848891688843020    0.358888669632477    0.996801339324626  0.0000
  O1     O1        0.130904360585071    0.128066618122822    0.355173755687478  0.0000
  O1     O1        0.376420527711001    0.894183538388647    0.360377449326927  0.0000
  O1     O1        0.908119308671161    0.266935291699864    0.592732917095889  0.0000
  O3     O3        0.592601155330037    0.817238552670403    0.607987084999079  0.0000
  O1     O1        0.866730467511125    0.925141284243804    0.594958835809506  0.0000
  O3     O3        0.619670841171176    0.182777559840556    0.599214519228774  0.0000
  O1     O1        0.077170727488456    0.793813699768909    0.341104135676610  0.0000
  O3     O3        0.412951319448846    0.251733750496734    0.329370285047239  0.0000
  O1     O1        0.021495488689286    0.015424940815481    0.532282146835325  0.0000
  O1     O1        0.474582585681858    0.050553176240444    0.534351848753897  0.0000
  O1     O1        0.973872791137050    0.064377249209439    0.283100707430848  0.0000
  O1     O1        0.526681029623110    0.005428364712193    0.289666066876866  0.0000
  O1     O1        0.967702845838789    0.044633909537086    0.780131989994760  0.0000
  O1     O1        0.525225534830956    0.025331279380504    0.788815565248816  0.0000
  O1     O1        0.631867617820866    0.121759531209754    0.095094466337593  0.0000
  O1     O1        0.872347760489324    0.893713062185784    0.114810479872597  0.0000
  O1     O1        0.413191766469870    0.268638651215068    0.853321611293764  0.0000
  O1     O1        0.081171452936963    0.800228189299144    0.846883103360202  0.0000
  O1     O1        0.374865385470385    0.919754203354556    0.849933224489142  0.0000
  O1     O1        0.116785028265022    0.149493089319480    0.848119983718289  0.0000
  O1     O1        0.577981786746289    0.786249166051274    0.097568979928773  0.0000
  O3     O3        0.912925244455485    0.251855108547588    0.072084885525379  0.0000
  O1     O1        0.475627928326512    0.055061397109576    0.040367010917992  0.0000
  O1     O1        0.019331922993206    0.996534023992604    0.035992689261914  0.0000
  O1     O1        0.154831184967960    0.480543859832586    0.323711833461648  0.0000
  O3     O3        0.339244174717111    0.546300019616675    0.315536274314836  0.0000
  O1     O1        0.841460747421003    0.583458452270398    0.625115882677121  0.0000
  O2     O2        0.657146010126551    0.508254675675279    0.648257664066424  0.0000
  O3     O3        0.270749399992068    0.254542507987346    0.258703547680089  0.0000
  O1     O1        0.230797795765275    0.793930567688051    0.269009938405506  0.0000
  O3     O3        0.757424982741717    0.270819913300373    0.673339131629303  0.0000
  O3     O3        0.726956182791444    0.798597140603348    0.707381337845277  0.0000
  O1     O1        0.140836631031812    0.266882724509153    0.102012318723376  0.0000
  O1     O1        0.356641510938569    0.790931526037537    0.104150088499721  0.0000
  O3     O3        0.870627479124644    0.388480091307252    0.845211594725976  0.0000
  O3     O3        0.613477807413503    0.686846317659315    0.846417155418237  0.0000
  O1     O1        0.857187920262521    0.792182616002103    0.854557757862504  0.0000
  O3     O3        0.644350696589850    0.272727168655903    0.839924809516412  0.0000
  O1     O1        0.118440611242181    0.661652094404179    0.099095822226605  0.0000
  O3     O3        0.372961624659404    0.395323626185599    0.102828650660952  0.0000
  O1     O1        0.652056975057779    0.475807283210397    0.062542100143507  0.0000
  O3     O3        0.839540740492116    0.544126058176957    0.059423747290649  0.0000
  O1     O1        0.333907576878625    0.576478440257219    0.880537188608080  0.0000
  O1     O1        0.160357254852797    0.490512373295400    0.878934478298998  0.0000
  O3     O3        0.770665608914016    0.250551190929475    0.007081938435180  0.0000
  O1     O1        0.730058223151324    0.790226538053172    0.021341408331756  0.0000
  O1     O1        0.265604620369617    0.247096597560650    0.935030470196058  0.0000
  O1     O1        0.228304129140644    0.813204652164838    0.942676982337804  0.0000
