data_c00142.vasp
_audit_creation_method             Generated by GULP
_audit_author_name                 Salvador R. G. Balestra
_symmetry_space_group_name_H-M     'P 1             '
_symmetry_Int_Tables_number        1

loop_
_symmetry_equiv_pos_site_id
_symmetry_equiv_pos_as_xyz
_cell_length_a                       17.6526
_cell_length_b                        7.8433
_cell_length_c                       10.2319
_cell_angle_alpha                   88.6373
_cell_angle_beta                    90.2162
_cell_angle_gamma                   91.4941

loop_
_atom_site_label
_atom_site_type_symbol
_atom_site_fract_x
_atom_site_fract_y
_atom_site_fract_z
_atom_site_charge
  Ge     Ge        0.052090000000021    0.000000000000000    0.372269999999958  0.0000
  Ge     Ge        0.446176010956647    0.055274149465417    0.334444506645333  0.0000
  Ge     Ge        0.947134217540168    0.078027475325740    0.619724172870211  0.0000
  Ge     Ge        0.551999996357444    0.024914170642670    0.590502340934348  0.0000
  Ge     Ge        0.552818055570877    0.004887230945860    0.083358593571385  0.0000
  Ge     Ge        0.946261247185358    0.059382113671652    0.121759868814405  0.0000
  Ge     Ge        0.444783865870928    0.062946394391439    0.836652173322695  0.0000
  Ge     Ge        0.052288693388978    0.012088159852390    0.872876694814475  0.0000
  Ge     Ge        0.173035466200324    0.290938148270093    0.256600795986800  0.0000
  Ge     Ge        0.326793914435155    0.762106254232623    0.263871054575303  0.0000
  Ge     Ge        0.851610428701814    0.392238573273608    0.686144735321002  0.0000
  Ge     Ge        0.823426303748700    0.791851031726088    0.695804194254561  0.0000
  Ge     Ge        0.669584526389445    0.321123019131707    0.697727448541947  0.0000
  Ge     Ge        0.145628069578240    0.690276776650663    0.261081898579344  0.0000
  Ge     Ge        0.674386994491995    0.297530990873630    0.012674405649700  0.0000
  Ge     Ge        0.355207486362851    0.377223172175496    0.954471140862772  0.0000
  Ge     Ge        0.151984493677429    0.699127231531132    0.941805936063299  0.0000
  Ge     Ge        0.174996079233372    0.299883215752073    0.939595638437508  0.0000
  Ge     Ge        0.653973301100111    0.697981272170886    0.019740297471238  0.0000
  Ge     Ge        0.855455043648840    0.379057260267943    0.001787980810419  0.0000
  Si     Si        0.647525087721838    0.716626216967190    0.707352851917657  0.0000
  Si     Si        0.350746981900891    0.366618468320979    0.262626880010222  0.0000
  Si     Si        0.829414649435349    0.775854899131262    0.007073041276703  0.0000
  Si     Si        0.329156291684132    0.774884748608886    0.954602662916990  0.0000
  O1     O1        0.130200945962867    0.130346566742150    0.345606759304249  0.0000
  O1     O1        0.377892236402010    0.897075313409979    0.359965678220919  0.0000
  O1     O1        0.914326320852868    0.280078833360067    0.594893228937793  0.0000
  O3     O3        0.584709303112801    0.824685620524337    0.632301319650275  0.0000
  O1     O1        0.869865829995716    0.941008279357667    0.601608947126383  0.0000
  O1     O1        0.619631962706216    0.184102708936794    0.600812709292219  0.0000
  O1     O1        0.078276665984298    0.794775030228162    0.346406775011754  0.0000
  O3     O3        0.406510005571856    0.254120972006403    0.351601263350213  0.0000
  O1     O1        0.024262279372687    0.026087665497995    0.531920325273111  0.0000
  O1     O1        0.524035832343992    0.025064355047721    0.428837745325942  0.0000
  O1     O1        0.973005329511520    0.051462737617623    0.283323909082599  0.0000
  O1     O1        0.475426246422744    0.040519586760025    0.174367333489423  0.0000
  O1     O1        0.974447955280443    0.053053278801333    0.781867275660232  0.0000
  O1     O1        0.470555699923648    0.061897714946133    0.675164811240864  0.0000
  O1     O1        0.625516957809275    0.151825733473868    0.107269861365173  0.0000
  O3     O3        0.873659216756061    0.912301462532115    0.093921370984504  0.0000
  O1     O1        0.420585924339788    0.269382203438840    0.870062001210147  0.0000
  O1     O1        0.091213281690191    0.816492749239105    0.848671487280140  0.0000
  O3     O3        0.370620148727877    0.918624513745621    0.865639823446874  0.0000
  O1     O1        0.124391098298046    0.161213883914010    0.846137144690626  0.0000
  O1     O1        0.591245440635307    0.806845293273261    0.109030604843329  0.0000
  O1     O1        0.918950164257193    0.265654145623598    0.092110374712579  0.0000
  O1     O1        0.524481349311902    0.011338203237188    0.921920092223834  0.0000
  O1     O1        0.025190063338476    0.013788620795098    0.034999232364071  0.0000
  O1     O1        0.153066784329013    0.485103010721359    0.320962038790128  0.0000
  O3     O3        0.340138819485395    0.552660570603239    0.318931006500213  0.0000
  O1     O1        0.842314659517018    0.596826837743414    0.630577391970915  0.0000
  O3     O3        0.657086936465397    0.531989542752121    0.645522046595711  0.0000
  O3     O3        0.270064170467090    0.265809350257693    0.253888452033800  0.0000
  O1     O1        0.232047243461830    0.797397406188002    0.272999941442662  0.0000
  O1     O1        0.764877817730670    0.286240559372972    0.689047329919990  0.0000
  O3     O3        0.727076919245496    0.823436092226142    0.696810687734519  0.0000
  O1     O1        0.141860734622321    0.284321126054329    0.097889776672688  0.0000
  O3     O3        0.358393372093213    0.786002283269556    0.103625480620327  0.0000
  O1     O1        0.886171501078253    0.394266442957543    0.843807633881646  0.0000
  O3     O3        0.625042539496094    0.684830197660447    0.857716825046101  0.0000
  O3     O3        0.855915549214819    0.792968002720436    0.856533248513548  0.0000
  O1     O1        0.639264780370041    0.288326188869544    0.855291347799889  0.0000
  O1     O1        0.119540552651070    0.679464868089148    0.099907634684421  0.0000
  O3     O3        0.383710090627288    0.384049309794425    0.116192559473343  0.0000
  O1     O1        0.661180966975641    0.495424078399084    0.078450909129046  0.0000
  O3     O3        0.844871837708926    0.583524719294167    0.059166840117085  0.0000
  O3     O3        0.345384414888215    0.586939802869272    0.900875499048580  0.0000
  O1     O1        0.160546068945018    0.503194803482050    0.877756594481651  0.0000
  O1     O1        0.769988579772771    0.268800700586076    0.007516932501505  0.0000
  O3     O3        0.740404517330305    0.808820200573968    0.017023504900742  0.0000
  O1     O1        0.270414929105119    0.267772975192548    0.938181691924146  0.0000
  O3     O3        0.239627594973274    0.804787422963498    0.952543258119067  0.0000
