data_c00119.vasp
_audit_creation_method             Generated by GULP
_audit_author_name                 Salvador R. G. Balestra
_symmetry_space_group_name_H-M     'P 1             '
_symmetry_Int_Tables_number        1

loop_
_symmetry_equiv_pos_site_id
_symmetry_equiv_pos_as_xyz
_cell_length_a                       17.8996
_cell_length_b                        7.8226
_cell_length_c                       10.2903
_cell_angle_alpha                   91.0247
_cell_angle_beta                    90.1274
_cell_angle_gamma                   89.6549

loop_
_atom_site_label
_atom_site_type_symbol
_atom_site_fract_x
_atom_site_fract_y
_atom_site_fract_z
_atom_site_charge
  Ge     Ge        0.052090000000021    0.000000000000000    0.372269999999958  0.0000
  Ge     Ge        0.444257387240303    0.028617313879999    0.378835437351529  0.0000
  Ge     Ge        0.947710785241153    0.965725434128866    0.623744694400501  0.0000
  Ge     Ge        0.553016212080597    0.007237326659609    0.629579591430790  0.0000
  Ge     Ge        0.550551323875114    0.022557661420940    0.125993471623900  0.0000
  Ge     Ge        0.946660556789298    0.013184752669646    0.116266488016805  0.0000
  Ge     Ge        0.445202770202603    0.017557747778358    0.876435837654058  0.0000
  Ge     Ge        0.054994297646139    0.986492736038848    0.872893334483039  0.0000
  Ge     Ge        0.169189927710848    0.286934541315072    0.306829037839965  0.0000
  Ge     Ge        0.327282356193781    0.737588947643565    0.311563070583194  0.0000
  Ge     Ge        0.827360842583002    0.257491391005177    0.749073276150891  0.0000
  Ge     Ge        0.668077854779769    0.712855589497487    0.735614172085595  0.0000
  Ge     Ge        0.848457966001794    0.662350057943635    0.727363384802335  0.0000
  Ge     Ge        0.653304914656066    0.335358529943261    0.061863418389732  0.0000
  Ge     Ge        0.849760792157476    0.688973933632260    0.041861224661015  0.0000
  Ge     Ge        0.349944626248765    0.332854221068409    0.998302271844664  0.0000
  Ge     Ge        0.149147466260477    0.676271847674931    0.997827934753277  0.0000
  Ge     Ge        0.325457500082926    0.743880115707591    0.995720450525150  0.0000
  Ge     Ge        0.173084425840569    0.267592629223645    0.991980124535373  0.0000
  Ge     Ge        0.669797132727485    0.741079505141457    0.049244057610774  0.0000
  Si     Si        0.653529524269769    0.310201521917495    0.749667031558472  0.0000
  Si     Si        0.152048417486134    0.683333794053090    0.309910184109651  0.0000
  Si     Si        0.345167983684736    0.338858276629402    0.308402250068390  0.0000
  Si     Si        0.827675921428030    0.292604605573475    0.061541603827552  0.0000
  O1     O1        0.119051469668985    0.153415187446126    0.402311605748594  0.0000
  O1     O1        0.378767935235082    0.872710227755765    0.407554418234358  0.0000
  O1     O1        0.876018036834073    0.098881820696314    0.673587598919607  0.0000
  O1     O1        0.613937297488923    0.838422519285678    0.637565150178599  0.0000
  O1     O1        0.911256653611745    0.764264596599356    0.630507499310910  0.0000
  O3     O3        0.593186789684036    0.200439180432447    0.671454921502753  0.0000
  O3     O3        0.093168421248927    0.799653799737305    0.388497745936463  0.0000
  O3     O3        0.400707173840024    0.226704700676181    0.394745553130876  0.0000
  O1     O1        0.974793726294834    0.013132450658383    0.468453911973791  0.0000
  O1     O1        0.522911971893512    0.017237396098053    0.470819452581320  0.0000
  O1     O1        0.021924283548841    0.033190274689423    0.215988959702867  0.0000
  O1     O1        0.474460645141992    0.998283042211479    0.220998919389302  0.0000
  O1     O1        0.028339905185263    0.987039918716623    0.712868649329803  0.0000
  O1     O1        0.472414043782002    0.988987161674828    0.717921376918703  0.0000
  O1     O1        0.588260837693025    0.223817958574715    0.144691410872464  0.0000
  O1     O1        0.908590921150306    0.813420019410186    0.133198515962840  0.0000
  O1     O1        0.417408468410849    0.224411867995777    0.914244093142564  0.0000
  O1     O1        0.080108396039925    0.783372276058758    0.919398745495219  0.0000
  O1     O1        0.371780223955307    0.881768960157339    0.899591513622903  0.0000
  O1     O1        0.127866508692640    0.125019675565039    0.892699306390046  0.0000
  O1     O1        0.623634591553290    0.881969073418177    0.148485321381146  0.0000
  O3     O3        0.878055404626533    0.167489454893898    0.146241905567582  0.0000
  O1     O1        0.521849348440255    0.975131001308821    0.969612993284983  0.0000
  O1     O1        0.977710683795493    0.045583093376483    0.960884513257854  0.0000
  O3     O3        0.156698361209584    0.494429054757905    0.366788669786709  0.0000
  O3     O3        0.339679123335355    0.530188889819929    0.365258161449880  0.0000
  O1     O1        0.844490558171265    0.451448579148462    0.680045846653560  0.0000
  O3     O3        0.660398401890033    0.497777079286925    0.690935826681965  0.0000
  O3     O3        0.264447280839217    0.247569029673587    0.307351144083393  0.0000
  O3     O3        0.232047152024965    0.777785204866721    0.316070609800999  0.0000
  O3     O3        0.732881491459492    0.212202369875206    0.740583105299566  0.0000
  O1     O1        0.761306035526942    0.756651817777642    0.720756764309340  0.0000
  O1     O1        0.140603528242324    0.257109186651678    0.148721022441915  0.0000
  O1     O1        0.355633333252623    0.761781485415455    0.154046625602925  0.0000
  O3     O3        0.851621798766793    0.279814638385436    0.910777379455782  0.0000
  O1     O1        0.637357808997414    0.744525480013713    0.891209025156771  0.0000
  O1     O1        0.881522713304919    0.681854443551278    0.884730192791743  0.0000
  O3     O3        0.628334243997805    0.327048923852912    0.899043261537305  0.0000
  O3     O3        0.126100197842052    0.662530884625505    0.160710977619658  0.0000
  O3     O3        0.375324566930443    0.346500388153835    0.161255592967003  0.0000
  O1     O1        0.655675695687553    0.541865103925604    0.113751603846103  0.0000
  O3     O3        0.840340754217804    0.488487736390427    0.107701917451819  0.0000
  O1     O1        0.339818180550169    0.535790761127065    0.942379343962565  0.0000
  O1     O1        0.158673301051370    0.472657595337046    0.937375473947683  0.0000
  O3     O3        0.741354862369693    0.243303035204193    0.076605001261894  0.0000
  O1     O1        0.763063301890399    0.784014914321798    0.040148375260954  0.0000
  O1     O1        0.267001911223948    0.224545993207455    0.987054553730028  0.0000
  O1     O1        0.231399825490734    0.786287059623731    0.986759271686376  0.0000
