data_c00114.vasp
_audit_creation_method             Generated by GULP
_audit_author_name                 Salvador R. G. Balestra
_symmetry_space_group_name_H-M     'P 1             '
_symmetry_Int_Tables_number        1

loop_
_symmetry_equiv_pos_site_id
_symmetry_equiv_pos_as_xyz
_cell_length_a                       17.7963
_cell_length_b                        7.7732
_cell_length_c                       10.5649
_cell_angle_alpha                   91.6238
_cell_angle_beta                    89.6326
_cell_angle_gamma                   89.8801

loop_
_atom_site_label
_atom_site_type_symbol
_atom_site_fract_x
_atom_site_fract_y
_atom_site_fract_z
_atom_site_charge
  Ge     Ge        0.052090000000021    0.000000000000000    0.372269999999958  0.0000
  Ge     Ge        0.447744859387545    0.032018306712284    0.350460570980871  0.0000
  Ge     Ge        0.947773502140704    0.972403048439381    0.625645885908229  0.0000
  Ge     Ge        0.548810941297772    0.010744451423734    0.606544907195215  0.0000
  Ge     Ge        0.547127938242981    0.023509131157890    0.091322167412597  0.0000
  Ge     Ge        0.944396212437927    0.990906279160271    0.128542931772501  0.0000
  Ge     Ge        0.438313778687151    0.006127309556919    0.848766971293476  0.0000
  Ge     Ge        0.050815839503529    0.986749868464727    0.880987377942210  0.0000
  Ge     Ge        0.169724721653880    0.286410487698201    0.265137051088135  0.0000
  Ge     Ge        0.326149786344691    0.755999021503438    0.261007924227435  0.0000
  Ge     Ge        0.823617358751766    0.251446822713703    0.706059923496834  0.0000
  Ge     Ge        0.668224662548514    0.722929599726896    0.710127374636273  0.0000
  Ge     Ge        0.847556301453789    0.660481709853821    0.701355808453956  0.0000
  Ge     Ge        0.349159402030591    0.341035610897584    0.267761979864875  0.0000
  Ge     Ge        0.645790091551206    0.338318664265223    0.017608095074282  0.0000
  Ge     Ge        0.850611382562042    0.673239215667285    0.011024217858011  0.0000
  Ge     Ge        0.151680219455690    0.671568785549960    0.954031553651839  0.0000
  Ge     Ge        0.171446292356033    0.265331454034805    0.959407775239102  0.0000
  Ge     Ge        0.672280330193791    0.747638049891443    0.017018883880321  0.0000
  Ge     Ge        0.822761460697542    0.261029431589611    0.013924801344831  0.0000
  Si     Si        0.648565573875942    0.319697735704886    0.715675247857238  0.0000
  Si     Si        0.151582413862596    0.692478539448778    0.256513328244528  0.0000
  Si     Si        0.348404135317265    0.322621867626611    0.970015697712272  0.0000
  Si     Si        0.327417555829579    0.727162215959396    0.961946288138832  0.0000
  O1     O1        0.115757777213096    0.163649565839700    0.361634379074962  0.0000
  O1     O1        0.371993700613504    0.893843237824956    0.360868018643297  0.0000
  O1     O1        0.872236545765960    0.109966747994828    0.610326499710147  0.0000
  O1     O1        0.613211003142903    0.848418855807860    0.617825044503529  0.0000
  O1     O1        0.912022175503488    0.768269890380350    0.611968391463338  0.0000
  O3     O3        0.587778115273033    0.210742699954764    0.637202133720462  0.0000
  O3     O3        0.090582975762285    0.799932847109130    0.336837693366385  0.0000
  O1     O1        0.412693585842717    0.237836487015179    0.359974838521666  0.0000
  O1     O1        0.021861692561887    0.002849773447791    0.527083899735675  0.0000
  O1     O1        0.519708524049635    0.003500394008489    0.451222007675359  0.0000
  O1     O1        0.973598457227523    0.023162179844402    0.281680461678928  0.0000
  O1     O1        0.479520102347189    0.984347659199197    0.198811388230224  0.0000
  O1     O1        0.980416552165302    0.014085622397394    0.777329464295144  0.0000
  O1     O1        0.468256403235494    0.988908407211759    0.694597028669835  0.0000
  O1     O1        0.578605642840419    0.233028616705564    0.101077304038766  0.0000
  O1     O1        0.917201453287406    0.781593367844952    0.097174030621211  0.0000
  O3     O3        0.402285654271467    0.212315185676534    0.877702177223462  0.0000
  O1     O1        0.087103092421062    0.781250100677169    0.870004380428941  0.0000
  O3     O3        0.373027426967669    0.842910310609020    0.866423430865222  0.0000
  O1     O1        0.127704229392842    0.119766306679697    0.863084320575853  0.0000
  O1     O1        0.623965584410958    0.890889907530179    0.110400654864593  0.0000
  O1     O1        0.868437830305843    0.123409218508322    0.109008300928114  0.0000
  O1     O1        0.514831478891395    0.976736735879043    0.940763942605352  0.0000
  O1     O1        0.017404563781160    0.039861179211132    0.030200058484940  0.0000
  O3     O3        0.161871764726145    0.503374104249724    0.309795484864873  0.0000
  O1     O1        0.343985861298236    0.551924180998860    0.312022984711994  0.0000
  O1     O1        0.839015760396315    0.453034580257158    0.647903112730449  0.0000
  O3     O3        0.659961141031175    0.507787052656243    0.660349670018961  0.0000
  O1     O1        0.263419621506763    0.240191150172210    0.278250148913726  0.0000
  O3     O3        0.230399230360584    0.794406029446370    0.263766144964477  0.0000
  O3     O3        0.727354554898307    0.215550432710744    0.709943575238476  0.0000
  O1     O1        0.762382982614783    0.767411633819388    0.698075363074278  0.0000
  O1     O1        0.139432086595684    0.254074221019828    0.113204960778102  0.0000
  O3     O3        0.354781513971213    0.770273367252462    0.103915815286151  0.0000
  O1     O1        0.854014692518789    0.239983796691960    0.859775714742791  0.0000
  O1     O1        0.639925003386796    0.753937461866676    0.863617885553696  0.0000
  O1     O1        0.879046992071541    0.662237477521898    0.855237342760055  0.0000
  O3     O3        0.619688757418020    0.342348624696088    0.859371198529105  0.0000
  O3     O3        0.124088678121635    0.678596805003406    0.111999652388272  0.0000
  O3     O3        0.380674031831575    0.317053333565247    0.111232365297782  0.0000
  O1     O1        0.657877532115200    0.543086210888452    0.073404717227999  0.0000
  O1     O1        0.837914021969471    0.471010686207316    0.065713572474930  0.0000
  O2     O2        0.339617757430888    0.522066128679671    0.931173553189333  0.0000
  O1     O1        0.153134109319410    0.464480127995198    0.899727322054125  0.0000
  O1     O1        0.728211379355277    0.222857693009432    0.021656611115868  0.0000
  O1     O1        0.766921463713452    0.785779016159859    0.016983504127399  0.0000
  O3     O3        0.267225125544735    0.233484398764460    0.966798191763766  0.0000
  O3     O3        0.239573265463064    0.766553175314915    0.947364702550695  0.0000
