data_c00141.vasp
_audit_creation_method             Generated by GULP
_audit_author_name                 Salvador R. G. Balestra
_symmetry_space_group_name_H-M     'P 1             '
_symmetry_Int_Tables_number        1

loop_
_symmetry_equiv_pos_site_id
_symmetry_equiv_pos_as_xyz
_cell_length_a                       17.6180
_cell_length_b                        7.8276
_cell_length_c                       10.2543
_cell_angle_alpha                   89.6345
_cell_angle_beta                    90.9630
_cell_angle_gamma                   88.3778

loop_
_atom_site_label
_atom_site_type_symbol
_atom_site_fract_x
_atom_site_fract_y
_atom_site_fract_z
_atom_site_charge
  Ge     Ge        0.052090000000021    0.000000000000000    0.372269999999958  0.0000
  Ge     Ge        0.448712507986052    0.950439212471088    0.412115408872790  0.0000
  Ge     Ge        0.946152416201969    0.969342047672412    0.623459501495343  0.0000
  Ge     Ge        0.551517030334540    0.015706590249890    0.667591359280496  0.0000
  Ge     Ge        0.555496505342276    0.016033758596308    0.169335342654627  0.0000
  Ge     Ge        0.947782701664446    0.950537343019683    0.113537224367329  0.0000
  Ge     Ge        0.448630687510777    0.945200741201394    0.918845845905333  0.0000
  Ge     Ge        0.055990432007642    0.008332574166299    0.869729891810397  0.0000
  Ge     Ge        0.152706650637471    0.312977983197778    0.304977482047916  0.0000
  Ge     Ge        0.356757411807621    0.633824852937265    0.295355354508919  0.0000
  Ge     Ge        0.826527122945772    0.255478460633406    0.735191702727710  0.0000
  Ge     Ge        0.850291794411802    0.655893806258075    0.740802735439060  0.0000
  Ge     Ge        0.644686477433777    0.336631791978051    0.736574101913997  0.0000
  Ge     Ge        0.174842615734572    0.715287666565418    0.300675851072645  0.0000
  Ge     Ge        0.645015729953637    0.329615121916345    0.051055890808068  0.0000
  Ge     Ge        0.323560085484630    0.230666477284388    0.987856295511423  0.0000
  Ge     Ge        0.172219773092520    0.709288121055333    0.985643632163887  0.0000
  Ge     Ge        0.353738253137396    0.629004369714364    0.980072634045297  0.0000
  Ge     Ge        0.675405211557821    0.730950685532990    0.047804157501856  0.0000
  Ge     Ge        0.827390283014363    0.249198492621631    0.049229058039386  0.0000
  Si     Si        0.673219751936449    0.731064867878959    0.736499150640311  0.0000
  Si     Si        0.329347016605207    0.238098199409931    0.298457718682954  0.0000
  Si     Si        0.850657046401192    0.642239684206565    0.052343272442608  0.0000
  Si     Si        0.147731108759193    0.311920562418461    0.993674952477668  0.0000
  O1     O1        0.088726461013626    0.200236744880174    0.390521865334271  0.0000
  O1     O1        0.420732703233215    0.745276817830699    0.386707693142538  0.0000
  O1     O1        0.870784300127603    0.109321893605263    0.637035882181268  0.0000
  O3     O3        0.626252021775337    0.867991112135937    0.649195427007353  0.0000
  O1     O1        0.918323040325446    0.767605528668599    0.665573573637190  0.0000
  O1     O1        0.583885378526477    0.218155038791753    0.643092024250912  0.0000
  O1     O1        0.126273020026566    0.855163434517888    0.397771420536532  0.0000
  O3     O3        0.374861299596643    0.095496527033091    0.381978619380363  0.0000
  O1     O1        0.974205848542819    0.966736846915393    0.463101210485664  0.0000
  O1     O1        0.474520597784465    0.968872377724534    0.574177706321039  0.0000
  O1     O1        0.024895162729773    0.977329925958594    0.210776380818979  0.0000
  O1     O1        0.529382979885592    0.997128741043042    0.329271930835096  0.0000
  O1     O1        0.025878069194389    0.025063242749370    0.709754228579428  0.0000
  O1     O1        0.522672135586219    0.003330277988054    0.827756199550767  0.0000
  O1     O1        0.580270246956654    0.223488626297084    0.140979742550084  0.0000
  O3     O3        0.911166561901751    0.747391701148262    0.134236502147180  0.0000
  O1     O1        0.369834556683601    0.080592087032451    0.899478006776470  0.0000
  O1     O1        0.125611443359915    0.851475716312638    0.883474428896664  0.0000
  O1     O1        0.417070684600034    0.742631700862203    0.891142540301499  0.0000
  O3     O3        0.084899740056958    0.209459665648661    0.915535820638143  0.0000
  O1     O1        0.634036958637516    0.888257237626612    0.136658862629536  0.0000
  O1     O1        0.878868361484331    0.105576460232962    0.142878107682902  0.0000
  O1     O1        0.478198553994168    0.955976384692993    0.079945988289564  0.0000
  O1     O1        0.976878401421717    0.957514787510916    0.954369675051338  0.0000
  O1     O1        0.159811036684506    0.513754398259092    0.363329745014534  0.0000
  O3     O3        0.345135217649911    0.427141078409116    0.353286283147045  0.0000
  O1     O1        0.843355804677881    0.456780766696231    0.675369608151162  0.0000
  O3     O3        0.657251849407508    0.542123630336895    0.680614772585748  0.0000
  O3     O3        0.240060836938321    0.204160970615051    0.306502333216240  0.0000
  O1     O1        0.270787815565305    0.743317573156752    0.300166509510958  0.0000
  O1     O1        0.730672690965675    0.227922210863021    0.738279492409570  0.0000
  O3     O3        0.762690846449760    0.764441250079262    0.730977326843162  0.0000
  O3     O3        0.123446281537590    0.331450586136295    0.142933493576284  0.0000
  O1     O1        0.387478431108865    0.621231151247155    0.138942103921086  0.0000
  O1     O1        0.859907119995323    0.228119688798997    0.892773158665078  0.0000
  O3     O3        0.645184775218735    0.740649828534724    0.885649926840737  0.0000
  O3     O3        0.875061119617237    0.619974821979964    0.902459696111011  0.0000
  O1     O1        0.611798474036828    0.342831978093077    0.892688703006075  0.0000
  O1     O1        0.141234248368800    0.735068448814043    0.141850179047308  0.0000
  O3     O3        0.355758206247024    0.228655664401363    0.148951229186202  0.0000
  O1     O1        0.653819224344873    0.533568294763711    0.108603829383238  0.0000
  O3     O3        0.840016489937484    0.454770850938030    0.110332240157220  0.0000
  O1     O1        0.343440227349495    0.427704904511574    0.922361465360384  0.0000
  O3     O3        0.158307376283667    0.499745759347465    0.934544905261228  0.0000
  O1     O1        0.731537722908382    0.220360060508759    0.053256764415137  0.0000
  O3     O3        0.772295943438343    0.754500609441800    0.051874813270655  0.0000
  O3     O3        0.226866891177249    0.202464502648357    0.985829308643160  0.0000
  O1     O1        0.267852908180508    0.739769954997838    0.981727593553973  0.0000
