data_c00174.vasp
_audit_creation_method             Generated by GULP
_audit_author_name                 Salvador R. G. Balestra
_symmetry_space_group_name_H-M     'P 1             '
_symmetry_Int_Tables_number        1

loop_
_symmetry_equiv_pos_site_id
_symmetry_equiv_pos_as_xyz
_cell_length_a                       17.6494
_cell_length_b                        7.7922
_cell_length_c                       10.2755
_cell_angle_alpha                   89.2778
_cell_angle_beta                    90.6345
_cell_angle_gamma                   91.1602

loop_
_atom_site_label
_atom_site_type_symbol
_atom_site_fract_x
_atom_site_fract_y
_atom_site_fract_z
_atom_site_charge
  Ge     Ge        0.052090000000021    0.000000000000000    0.372269999999958  0.0000
  Ge     Ge        0.452205907683165    0.050478089311772    0.336830115209061  0.0000
  Ge     Ge        0.947434787873987    0.044705374296576    0.624667848106810  0.0000
  Ge     Ge        0.557369964175131    0.999483468156674    0.588170226988651  0.0000
  Ge     Ge        0.548490384181447    0.976103408311779    0.077658457774642  0.0000
  Ge     Ge        0.943743552767244    0.038159851435739    0.126002895266284  0.0000
  Ge     Ge        0.443309868722942    0.050478567117959    0.823997782064618  0.0000
  Ge     Ge        0.052114840952338    0.987310545814240    0.882049598920129  0.0000
  Ge     Ge        0.174670554717953    0.283593605823220    0.262416762270142  0.0000
  Ge     Ge        0.326284238021886    0.772851472091007    0.258921142315930  0.0000
  Ge     Ge        0.847276810327050    0.360088536261421    0.687899032064552  0.0000
  Ge     Ge        0.825072744747840    0.760973778123721    0.700622885648915  0.0000
  Ge     Ge        0.147254234280949    0.689149218394503    0.253760595734510  0.0000
  Ge     Ge        0.354571549521465    0.366414694759910    0.262584827984176  0.0000
  Ge     Ge        0.674569384543172    0.260289486817725    0.003840735393621  0.0000
  Ge     Ge        0.827151344307942    0.742644233880082    0.015189521141536  0.0000
  Ge     Ge        0.353453323270736    0.363218271007937    0.945644862835347  0.0000
  Ge     Ge        0.324468101249772    0.767306629002420    0.943120518347116  0.0000
  Ge     Ge        0.172906985800551    0.281661017828984    0.948372214259892  0.0000
  Ge     Ge        0.647242727040356    0.665416212397606    0.017871070509073  0.0000
  Si     Si        0.647576030360787    0.685910808247349    0.710362191193237  0.0000
  Si     Si        0.671055129430270    0.290015958281601    0.696029913538233  0.0000
  Si     Si        0.149317099847363    0.677163406592095    0.944806346788005  0.0000
  Si     Si        0.849700679218093    0.343229596485413    0.999611508215751  0.0000
  O1     O1        0.127828511726207    0.138921537457115    0.360565022499081  0.0000
  O1     O1        0.376921859498095    0.908991506878143    0.357014458797591  0.0000
  O1     O1        0.912887436862241    0.248554250889935    0.604894420879507  0.0000
  O3     O3        0.590086058276428    0.795988635254685    0.622977139682720  0.0000
  O1     O1        0.869898648868400    0.909139452137276    0.604373066113307  0.0000
  O3     O3        0.623862129728030    0.164104089227558    0.603270115176398  0.0000
  O1     O1        0.077479272490487    0.796147971592122    0.330521701196826  0.0000
  O1     O1        0.419652878752997    0.254834831934112    0.354134965252846  0.0000
  O1     O1        0.023396040059463    0.000595230255701    0.532553902274117  0.0000
  O1     O1        0.530525638841176    0.001901251229093    0.426386786195246  0.0000
  O1     O1        0.973378634528327    0.060212673517553    0.284770110538783  0.0000
  O1     O1        0.477034769735392    0.031765371787470    0.174455763940730  0.0000
  O1     O1        0.975391285530782    0.017696716216584    0.785218058222134  0.0000
  O1     O1        0.474759450059163    0.041009203994016    0.666446763825240  0.0000
  O1     O1        0.627380478116436    0.110939436342386    0.093077323753607  0.0000
  O1     O1        0.875961315164709    0.877910409609497    0.116815828652564  0.0000
  O1     O1        0.419108247238430    0.257373178660644    0.857943879844882  0.0000
  O3     O3        0.090053637247412    0.784759307487298    0.859998676709985  0.0000
  O1     O1        0.364351454313350    0.920243018291584    0.844522364149980  0.0000
  O1     O1        0.120715464352605    0.143772660396827    0.854239259285829  0.0000
  O1     O1        0.581110052759429    0.771429142962649    0.104556713589921  0.0000
  O3     O3        0.913225491800981    0.238046172641725    0.074970983128190  0.0000
  O1     O1        0.517759218325576    0.985435979344015    0.918319903641495  0.0000
  O1     O1        0.023102879799448    0.989121503803206    0.041248862841055  0.0000
  O1     O1        0.159894970651109    0.487929224849076    0.318406704592836  0.0000
  O1     O1        0.340439905927406    0.567257814715186    0.318794909190133  0.0000
  O1     O1        0.843569107140788    0.565419163149318    0.632500029203106  0.0000
  O2     O2        0.658695437127282    0.491687535666190    0.657830114474112  0.0000
  O1     O1        0.270283497678684    0.249706700779504    0.262749681114530  0.0000
  O1     O1        0.230524729569285    0.808146039646457    0.263041910849370  0.0000
  O3     O3        0.759631074930950    0.254574742725806    0.681447848785471  0.0000
  O3     O3        0.728113435145155    0.786100911622906    0.707233000564843  0.0000
  O1     O1        0.141558799128903    0.258440219745675    0.105457525293748  0.0000
  O1     O1        0.357736417122102    0.788540201677726    0.100426220287931  0.0000
  O3     O3        0.873357012593460    0.372020524084751    0.850729612666736  0.0000
  O3     O3        0.617404603433664    0.670304640874536    0.855433595772388  0.0000
  O1     O1        0.857789898077384    0.775847285647072    0.858902775609354  0.0000
  O3     O3        0.643676932493704    0.253458369918930    0.842549882985661  0.0000
  O3     O3        0.121999710427519    0.652360871046349    0.093149558925432  0.0000
  O1     O1        0.384172226886682    0.382452510906095    0.103904805685343  0.0000
  O1     O1        0.654824585632469    0.458042157865374    0.067415062631071  0.0000
  O3     O3        0.838793513712100    0.528535761341670    0.061965268261995  0.0000
  O1     O1        0.343431690826464    0.567203837919111    0.884622093821831  0.0000
  O3     O3        0.161519005232725    0.490379235070204    0.887569811808983  0.0000
  O3     O3        0.771311185407691    0.232109018523078    0.006506867624104  0.0000
  O1     O1        0.732090070492907    0.776901719713470    0.026345667832777  0.0000
  O1     O1        0.268479070159461    0.248950170704235    0.943664492583329  0.0000
  O3     O3        0.227358453507656    0.789156117416986    0.949746487518880  0.0000
