data_c00160.vasp
_audit_creation_method             Generated by GULP
_audit_author_name                 Salvador R. G. Balestra
_symmetry_space_group_name_H-M     'P 1             '
_symmetry_Int_Tables_number        1

loop_
_symmetry_equiv_pos_site_id
_symmetry_equiv_pos_as_xyz
_cell_length_a                       17.7450
_cell_length_b                        7.7920
_cell_length_c                       10.1641
_cell_angle_alpha                   89.0635
_cell_angle_beta                    90.3572
_cell_angle_gamma                   90.4590

loop_
_atom_site_label
_atom_site_type_symbol
_atom_site_fract_x
_atom_site_fract_y
_atom_site_fract_z
_atom_site_charge
  Ge     Ge        0.052090000000021    0.000000000000000    0.372269999999958  0.0000
  Ge     Ge        0.440886109549920    0.045682212476246    0.330789037899774  0.0000
  Ge     Ge        0.943469985588976    0.051059239055945    0.618278477114085  0.0000
  Ge     Ge        0.550487027140586    0.009542603086830    0.581869090416220  0.0000
  Ge     Ge        0.546260515081070    0.983222045015352    0.079526442692235  0.0000
  Ge     Ge        0.939115004874455    0.039802365281134    0.129167299381362  0.0000
  Ge     Ge        0.441888186462624    0.047574767943207    0.827353317166588  0.0000
  Ge     Ge        0.044352960077017    0.990098829169043    0.877994528785323  0.0000
  Ge     Ge        0.168342675691658    0.293747879743391    0.266096799064317  0.0000
  Ge     Ge        0.321119716498477    0.757585930638970    0.261035600164388  0.0000
  Ge     Ge        0.846422429250986    0.366942615862519    0.686488175991628  0.0000
  Ge     Ge        0.820643185402889    0.772229512935540    0.697757875466155  0.0000
  Ge     Ge        0.667276899941099    0.299639098366079    0.688594568032928  0.0000
  Ge     Ge        0.669067930366231    0.268784307767648    0.005469479116615  0.0000
  Ge     Ge        0.823157142843529    0.748542753711777    0.016319981139417  0.0000
  Ge     Ge        0.346598607274321    0.354205241292541    0.953932585967910  0.0000
  Ge     Ge        0.145191220596259    0.676286873750093    0.940633509080484  0.0000
  Ge     Ge        0.321003633336355    0.763691363411570    0.941919576246213  0.0000
  Ge     Ge        0.169652374001179    0.269852183723322    0.948628454249492  0.0000
  Ge     Ge        0.646201887683708    0.671550880854406    0.021338509272216  0.0000
  Si     Si        0.645485129822929    0.697838443460349    0.705787325305721  0.0000
  Si     Si        0.145230018244747    0.688273209331457    0.255943671952440  0.0000
  Si     Si        0.344512601924214    0.362402296592918    0.267538515711716  0.0000
  Si     Si        0.844194437424136    0.345887695661531    0.999434844502062  0.0000
  O1     O1        0.122740820367107    0.150296187275205    0.366648422932946  0.0000
  O1     O1        0.370040058761669    0.896873482838807    0.357394694459558  0.0000
  O1     O1        0.911738137791298    0.257675450039951    0.597548609101260  0.0000
  O3     O3        0.583020750351106    0.809164263535397    0.629907841721703  0.0000
  O1     O1        0.866540643885981    0.917007868893135    0.599337778566821  0.0000
  O1     O1        0.617904136073704    0.166933252319349    0.586836407618651  0.0000
  O3     O3        0.082712061862745    0.798947788207188    0.328404161993259  0.0000
  O3     O3        0.403753851467494    0.249298448735731    0.350757111347078  0.0000
  O1     O1        0.021196944475513    0.994715345152979    0.533360743626043  0.0000
  O1     O1        0.519774059801378    0.003056366433703    0.420475737968467  0.0000
  O1     O1        0.971351988870047    0.055262644826385    0.288557657688890  0.0000
  O1     O1        0.469573397187815    0.032927805019435    0.168733008173050  0.0000
  O1     O1        0.968546875783885    0.033432981281234    0.783155659494394  0.0000
  O1     O1        0.470378755557331    0.058718036199360    0.666343250578761  0.0000
  O1     O1        0.621975668404756    0.121298504950678    0.099102791907856  0.0000
  O1     O1        0.873453278891255    0.877436860435752    0.119464952352713  0.0000
  O1     O1        0.416255605446554    0.250290554714964    0.874764768556273  0.0000
  O1     O1        0.077184286933944    0.784647218967035    0.855769781103311  0.0000
  O1     O1        0.367907324020741    0.905698685395164    0.842231518893224  0.0000
  O1     O1        0.118418801172054    0.132199839527194    0.854957870526883  0.0000
  O1     O1        0.579638031728002    0.778592547663322    0.107329080881649  0.0000
  O3     O3        0.904043635399078    0.239050907737175    0.084071378892783  0.0000
  O1     O1        0.519101594280578    0.985524684278076    0.916355280262975  0.0000
  O1     O1        0.017794214877173    0.997305380051997    0.040584525853835  0.0000
  O3     O3        0.152711071091354    0.500082941508859    0.322085284208636  0.0000
  O3     O3        0.336456127351058    0.551508259854699    0.324066990006090  0.0000
  O1     O1        0.838675075081031    0.573705958260299    0.633165446669767  0.0000
  O3     O3        0.656078338903118    0.513496697548364    0.639659866057853  0.0000
  O3     O3        0.264658644042888    0.261549152551946    0.268032755964381  0.0000
  O3     O3        0.224659458620666    0.791115740586794    0.262913616525691  0.0000
  O1     O1        0.761692471036363    0.258952415094858    0.678247479779725  0.0000
  O3     O3        0.724157294265873    0.804183987132292    0.701306572244146  0.0000
  O1     O1        0.137584361387892    0.259030388049118    0.108704624591849  0.0000
  O1     O1        0.351910554616969    0.784350263453720    0.102150403039475  0.0000
  O3     O3        0.873227544478483    0.373295769220192    0.851398147247953  0.0000
  O3     O3        0.622378480070097    0.658718853191967    0.855225524964383  0.0000
  O1     O1        0.852904525745761    0.784623510917016    0.857863407131733  0.0000
  O1     O1        0.635875868719933    0.260988513289971    0.845892512562691  0.0000
  O3     O3        0.122098027970869    0.653930069065219    0.106216974136281  0.0000
  O3     O3        0.371369198818212    0.383186812279519    0.117189343791918  0.0000
  O1     O1        0.653365980644876    0.465165804804029    0.075592992595058  0.0000
  O3     O3        0.832109329970807    0.532271613481414    0.060330541947994  0.0000
  O1     O1        0.334180509343079    0.556229852944932    0.889914927542700  0.0000
  O1     O1        0.157459575326578    0.475017562061288    0.884111922697128  0.0000
  O3     O3        0.765647635432746    0.238842908021000    0.998330230873297  0.0000
  O1     O1        0.728889412806396    0.787672926081514    0.030277413833483  0.0000
  O1     O1        0.264894018840443    0.233213145220237    0.945640685406889  0.0000
  O1     O1        0.226036187587417    0.799633628962599    0.934612084586352  0.0000
