data_c00152.vasp
_audit_creation_method             Generated by GULP
_audit_author_name                 Salvador R. G. Balestra
_symmetry_space_group_name_H-M     'P 1             '
_symmetry_Int_Tables_number        1

loop_
_symmetry_equiv_pos_site_id
_symmetry_equiv_pos_as_xyz
_cell_length_a                       17.6705
_cell_length_b                        7.7964
_cell_length_c                       10.2339
_cell_angle_alpha                   89.4500
_cell_angle_beta                    90.1053
_cell_angle_gamma                   91.2318

loop_
_atom_site_label
_atom_site_type_symbol
_atom_site_fract_x
_atom_site_fract_y
_atom_site_fract_z
_atom_site_charge
  Ge     Ge        0.052090000000021    0.000000000000000    0.372269999999958  0.0000
  Ge     Ge        0.446690609918540    0.052676130722079    0.372395946361642  0.0000
  Ge     Ge        0.948473532014769    0.059585683185913    0.627463004431093  0.0000
  Ge     Ge        0.554020696457507    0.006297060029062    0.619731395210243  0.0000
  Ge     Ge        0.540963503429871    0.991153404132243    0.108990875094360  0.0000
  Ge     Ge        0.945696922530868    0.058874037328432    0.121678488680121  0.0000
  Ge     Ge        0.436698262231242    0.061338071763088    0.853828557441985  0.0000
  Ge     Ge        0.054110881455085    0.009813829819177    0.877533462702812  0.0000
  Ge     Ge        0.171160838051572    0.292459489228441    0.296423145309970  0.0000
  Ge     Ge        0.323070970800576    0.773875276065657    0.296185755746696  0.0000
  Ge     Ge        0.853275520345227    0.374366355173821    0.735040454384507  0.0000
  Ge     Ge        0.823760189660127    0.775695378288069    0.737927769189764  0.0000
  Ge     Ge        0.671724368215442    0.300603523455442    0.727848262295902  0.0000
  Ge     Ge        0.351244299802289    0.368866538960339    0.295906168455725  0.0000
  Ge     Ge        0.667475218153320    0.277057450006774    0.042691078219639  0.0000
  Ge     Ge        0.820508872239082    0.772860898510714    0.056742176647742  0.0000
  Ge     Ge        0.345347600588695    0.374171988710079    0.977272458952117  0.0000
  Ge     Ge        0.317731008109712    0.776876727808104    0.976465211698597  0.0000
  Ge     Ge        0.644351552916447    0.682460564825125    0.051975802426674  0.0000
  Ge     Ge        0.845260806633022    0.368537510579807    0.053769621502815  0.0000
  Si     Si        0.647836411836558    0.696371746038237    0.738322386983281  0.0000
  Si     Si        0.148137560374242    0.692947165252099    0.301074184353940  0.0000
  Si     Si        0.142066795173664    0.695469194383318    0.995951152624006  0.0000
  Si     Si        0.166803194975593    0.301211435721710    0.989063821113247  0.0000
  O1     O1        0.121112085979025    0.156024852389868    0.396299941443397  0.0000
  O1     O1        0.370565642321953    0.913393282414627    0.394870567928938  0.0000
  O1     O1        0.922462007545858    0.267217895367884    0.654100694395992  0.0000
  O3     O3        0.584559487094691    0.805138799525783    0.664261612629887  0.0000
  O1     O1        0.868784958032848    0.934335913580809    0.651445052688500  0.0000
  O1     O1        0.623172631168806    0.161705006480851    0.628101680265538  0.0000
  O3     O3        0.088462270950162    0.794855482692674    0.386531760241908  0.0000
  O1     O1        0.415467133604394    0.258178382258582    0.388249193306719  0.0000
  O1     O1        0.975287981051512    0.030823110139185    0.467292628169670  0.0000
  O1     O1        0.525323330462436    0.001811528564034    0.457856482861371  0.0000
  O1     O1        0.023628799932304    0.021981843243546    0.212167994112316  0.0000
  O1     O1        0.467331115354060    0.030515151625128    0.207468194059265  0.0000
  O1     O1        0.027113508598717    0.004172960837342    0.716360138625686  0.0000
  O1     O1        0.470713943752216    0.054261374348165    0.696948426847648  0.0000
  O1     O1        0.615304101622894    0.134377053484047    0.133416791924489  0.0000
  O1     O1        0.874350615441408    0.908443477918101    0.149143411072127  0.0000
  O1     O1        0.407844650990880    0.266312974478945    0.884127014067440  0.0000
  O3     O3        0.079648605191181    0.801422813573604    0.919720363353955  0.0000
  O1     O1        0.358474232478537    0.930030128165372    0.878464274242835  0.0000
  O3     O3        0.123943661024971    0.167639408237029    0.895879412100318  0.0000
  O1     O1        0.574078613592673    0.785975532594483    0.130203003973701  0.0000
  O1     O1        0.908228292429751    0.257541721760644    0.146804309698404  0.0000
  O1     O1        0.511754344010742    0.003401778985279    0.948548143500217  0.0000
  O1     O1        0.973588005560684    0.056465936297366    0.959726771366453  0.0000
  O3     O3        0.158415628101269    0.501251910987312    0.351681546013554  0.0000
  O1     O1        0.342064660993067    0.570730089618796    0.353407345243251  0.0000
  O1     O1        0.844367340021439    0.579264792356192    0.674145058956796  0.0000
  O3     O3        0.658460818170174    0.511023343653172    0.674135499099095  0.0000
  O1     O1        0.265679486884004    0.256078567001531    0.301425400685374  0.0000
  O3     O3        0.226419884884969    0.802323068035614    0.304706731677301  0.0000
  O1     O1        0.767055040062574    0.266633378840695    0.723820688129067  0.0000
  O3     O3        0.726531553866584    0.804730624946588    0.733413516353499  0.0000
  O3     O3        0.138645815368554    0.270341459472484    0.136746975879366  0.0000
  O1     O1        0.349746048121776    0.793947661593221    0.134614666808641  0.0000
  O1     O1        0.877506815869326    0.394651953685705    0.896325714448168  0.0000
  O3     O3        0.623645668554936    0.660050251185028    0.886789754506887  0.0000
  O1     O1        0.852025380411699    0.787601722293204    0.898006226588004  0.0000
  O1     O1        0.637044969975551    0.265644182862412    0.882459802630493  0.0000
  O2     O2        0.120802379038879    0.685246203631201    0.149389788125838  0.0000
  O1     O1        0.378650549832039    0.380042492919103    0.134776801824937  0.0000
  O1     O1        0.654737167616975    0.478806398790244    0.108136327130370  0.0000
  O1     O1        0.829201636403393    0.565533856497680    0.116060670952143  0.0000
  O1     O1        0.339496842293279    0.578566415383877    0.917645399528464  0.0000
  O2     O2        0.149689914867005    0.499525389014750    0.945820084625836  0.0000
  O1     O1        0.762871768429668    0.244341701223791    0.044851428301010  0.0000
  O1     O1        0.725264589701924    0.809304404466869    0.063316002117479  0.0000
  O3     O3        0.256228800228322    0.274557500457693    0.980666523178118  0.0000
  O3     O3        0.220611368940115    0.798428803858095    0.975492151533127  0.0000
