data_c00156.vasp
_audit_creation_method             Generated by GULP
_audit_author_name                 Salvador R. G. Balestra
_symmetry_space_group_name_H-M     'P 1             '
_symmetry_Int_Tables_number        1

loop_
_symmetry_equiv_pos_site_id
_symmetry_equiv_pos_as_xyz
_cell_length_a                       17.6930
_cell_length_b                        7.7869
_cell_length_c                       10.3001
_cell_angle_alpha                   90.1938
_cell_angle_beta                    89.5862
_cell_angle_gamma                   90.9167

loop_
_atom_site_label
_atom_site_type_symbol
_atom_site_fract_x
_atom_site_fract_y
_atom_site_fract_z
_atom_site_charge
  Ge     Ge        0.052090000000021    0.000000000000000    0.372269999999958  0.0000
  Ge     Ge        0.444555784837089    0.047068460675312    0.344477707108632  0.0000
  Ge     Ge        0.946112669759097    0.047246323238508    0.623355760504260  0.0000
  Ge     Ge        0.548681215625919    0.998440870421312    0.595947638693913  0.0000
  Ge     Ge        0.544989637075453    0.986429302769755    0.084687608277471  0.0000
  Ge     Ge        0.943298626912620    0.046228448335026    0.129578218584089  0.0000
  Ge     Ge        0.437181490112287    0.039240395540881    0.838445169150500  0.0000
  Ge     Ge        0.049000189023272    0.984366226889998    0.878619797001574  0.0000
  Ge     Ge        0.168916389073296    0.294001361923371    0.267136178235043  0.0000
  Ge     Ge        0.321394251275579    0.770264770459240    0.258408208463883  0.0000
  Ge     Ge        0.848169880411280    0.365530101096980    0.688511058062328  0.0000
  Ge     Ge        0.820776456914024    0.768402451717413    0.700901012694498  0.0000
  Ge     Ge        0.667941781509465    0.292470011887977    0.697704966679116  0.0000
  Ge     Ge        0.349791402189360    0.361927465444974    0.268848423689602  0.0000
  Ge     Ge        0.670668585140612    0.267687939733964    0.011770961057167  0.0000
  Ge     Ge        0.821493944316563    0.763331729303705    0.016633576323163  0.0000
  Ge     Ge        0.150933719972844    0.673717440647601    0.939037750967749  0.0000
  Ge     Ge        0.170048668612240    0.272922513113976    0.955938652253251  0.0000
  Ge     Ge        0.644842837895757    0.673369722707682    0.019541598098957  0.0000
  Ge     Ge        0.849075957984113    0.355432407413928    0.005792637194011  0.0000
  Si     Si        0.644996702105044    0.690125018793563    0.709916307970327  0.0000
  Si     Si        0.146501100423354    0.692089074540903    0.250958034414045  0.0000
  Si     Si        0.347297727425875    0.347960714743362    0.964790429015831  0.0000
  Si     Si        0.325255040723446    0.748072134820863    0.951114596303160  0.0000
  O1     O1        0.120518678027776    0.157023209471229    0.368102165932868  0.0000
  O1     O1        0.366153557248913    0.912712267238287    0.357070066901791  0.0000
  O1     O1        0.914069801946721    0.252084301024863    0.601504633994951  0.0000
  O3     O3        0.582301206112102    0.798778755194428    0.636542702716103  0.0000
  O1     O1        0.867918800692426    0.914287177374463    0.606816942190825  0.0000
  O1     O1        0.616517126887021    0.156671827035257    0.600717874982081  0.0000
  O3     O3        0.082499452675374    0.799733326603265    0.323516500096225  0.0000
  O1     O1        0.413114186823799    0.253560093538789    0.362266640417848  0.0000
  O1     O1        0.021627320843021    0.989173723723803    0.531806356757344  0.0000
  O1     O1        0.518995323612631    0.991283738485269    0.436166627444725  0.0000
  O1     O1        0.972627144561989    0.052455183531546    0.288091209909890  0.0000
  O1     O1        0.471135241415980    0.025611619769011    0.183243770796120  0.0000
  O1     O1        0.974812818214380    0.030883297614495    0.783821398330183  0.0000
  O1     O1        0.467146315057904    0.044207018804314    0.679643547909003  0.0000
  O1     O1        0.620607614491301    0.126684753947020    0.105805767400911  0.0000
  O1     O1        0.868093516324160    0.905931312434443    0.114391149564075  0.0000
  O3     O3        0.401120643946177    0.241454263200130    0.870630100390890  0.0000
  O1     O1        0.086266893641765    0.783614660109179    0.852614744448277  0.0000
  O3     O3        0.372567140325718    0.870811787105090    0.856196105131142  0.0000
  O1     O1        0.124788088970659    0.125358675752974    0.861944254719247  0.0000
  O1     O1        0.576931572084885    0.780082627055390    0.103689877582919  0.0000
  O1     O1        0.917535910553853    0.250640076365229    0.088069120928752  0.0000
  O1     O1        0.516759119392890    0.006452268196509    0.925463473076550  0.0000
  O1     O1        0.018969946299175    0.983863507373704    0.037919957905088  0.0000
  O3     O3        0.156343559645757    0.506483001843347    0.315686299232082  0.0000
  O1     O1        0.342077615816493    0.569469484158972    0.316670401013561  0.0000
  O1     O1        0.838408833652728    0.569864551122183    0.633529175148750  0.0000
  O3     O3        0.656367188137703    0.503724491674937    0.645932931959947  0.0000
  O1     O1        0.263654224338584    0.256695662351425    0.275601374081605  0.0000
  O3     O3        0.224864505135262    0.800808974889959    0.260422942749422  0.0000
  O1     O1        0.762877881164860    0.254717308143056    0.686374818910050  0.0000
  O3     O3        0.723796772161856    0.798367776272595    0.705208304574133  0.0000
  O1     O1        0.135683326691716    0.258834956678063    0.112767195545543  0.0000
  O3     O3        0.351849516656192    0.785227502005814    0.097605470101996  0.0000
  O1     O1        0.876829000694294    0.381025076723517    0.847344057418616  0.0000
  O3     O3        0.619709935593330    0.655286065977426    0.857039755868330  0.0000
  O1     O1        0.852685500083965    0.783055644310863    0.858305130174699  0.0000
  O1     O1        0.638211988213839    0.259093223280784    0.854293897793067  0.0000
  O3     O3        0.125523198164386    0.658709653271704    0.101993495363055  0.0000
  O3     O3        0.381502472861980    0.354286113182262    0.108069677436373  0.0000
  O1     O1        0.657581207946054    0.471548594287309    0.075582291157682  0.0000
  O1     O1        0.835116329831237    0.555887575036860    0.069239428155625  0.0000
  O2     O2        0.336094097571414    0.544842470166798    0.917392779586440  0.0000
  O1     O1        0.153841230246977    0.468476336647470    0.884538414528142  0.0000
  O1     O1        0.766256763049574    0.234351851651837    0.010383662478678  0.0000
  O1     O1        0.726216317612734    0.797356726219489    0.023932881831977  0.0000
  O3     O3        0.266654651481735    0.249615518254606    0.968179913209347  0.0000
  O3     O3        0.237041747907573    0.783906752820035    0.934084879344100  0.0000
