data_c00193.vasp
_audit_creation_method             Generated by GULP
_audit_author_name                 Salvador R. G. Balestra
_symmetry_space_group_name_H-M     'P 1             '
_symmetry_Int_Tables_number        1

loop_
_symmetry_equiv_pos_site_id
_symmetry_equiv_pos_as_xyz
_cell_length_a                       17.8394
_cell_length_b                        7.8536
_cell_length_c                       10.3153
_cell_angle_alpha                   90.5868
_cell_angle_beta                    90.1556
_cell_angle_gamma                   89.5258

loop_
_atom_site_label
_atom_site_type_symbol
_atom_site_fract_x
_atom_site_fract_y
_atom_site_fract_z
_atom_site_charge
  Ge     Ge        0.052090000000021    0.000000000000000    0.372269999999958  0.0000
  Ge     Ge        0.447658184206839    0.973319310633352    0.337679063351738  0.0000
  Ge     Ge        0.942431788206286    0.990598699388421    0.617553313420928  0.0000
  Ge     Ge        0.553122667197752    0.975019437020340    0.588786518215881  0.0000
  Ge     Ge        0.546807201682236    0.984051044670513    0.073719424599595  0.0000
  Ge     Ge        0.939923521541671    0.003121654941141    0.128095044864662  0.0000
  Ge     Ge        0.438661989806580    0.968274728659408    0.825672331021752  0.0000
  Ge     Ge        0.044271121411958    0.992735741477004    0.876305741049282  0.0000
  Ge     Ge        0.147555777294709    0.313885154888213    0.263789809919371  0.0000
  Ge     Ge        0.343422073232670    0.664961920886782    0.262450490752746  0.0000
  Ge     Ge        0.840015918839002    0.306076385559628    0.691320157797305  0.0000
  Ge     Ge        0.823530347615498    0.709888349216106    0.689367323505536  0.0000
  Ge     Ge        0.328361586748381    0.259493686541301    0.264557389093610  0.0000
  Ge     Ge        0.664507121755263    0.270099541622139    0.008847032362118  0.0000
  Ge     Ge        0.822461724216421    0.722955035239118    0.006559994514417  0.0000
  Ge     Ge        0.322452000498402    0.249159061369721    0.950660623422389  0.0000
  Ge     Ge        0.167634845205343    0.712973753481487    0.945087311241442  0.0000
  Ge     Ge        0.346503998925971    0.656813777506010    0.945571418034307  0.0000
  Ge     Ge        0.142239513715077    0.309031425339627    0.952103414286751  0.0000
  Ge     Ge        0.844525180097846    0.315566420758763    0.010234744796239  0.0000
  Si     Si        0.647681998228895    0.663853512116032    0.700570457423980  0.0000
  Si     Si        0.663100321027145    0.265677728413666    0.701999457548075  0.0000
  Si     Si        0.167155936318254    0.713364234581894    0.254548655421583  0.0000
  Si     Si        0.647003699684218    0.672644781726613    0.002869443375083  0.0000
  O1     O1        0.088254735274841    0.200682258408004    0.360148387089181  0.0000
  O1     O1        0.402230151022612    0.783324127990620    0.356953942985067  0.0000
  O1     O1        0.899361910093921    0.185117012105249    0.598444709310938  0.0000
  O3     O3        0.589447329636260    0.772828978954876    0.618081504124147  0.0000
  O1     O1        0.873307950383925    0.841994471797354    0.592749417963659  0.0000
  O3     O3        0.615026163763896    0.140436579195879    0.612180690466039  0.0000
  O3     O3        0.120074207240034    0.849735346393521    0.337417023348750  0.0000
  O1     O1        0.381362147549107    0.130898146282512    0.361671033333925  0.0000
  O1     O1        0.022248186452729    0.969013726341226    0.528895833388928  0.0000
  O1     O1        0.527407443542883    0.985706478712900    0.428373890531183  0.0000
  O1     O1        0.970528490009581    0.981802514023225    0.284573169348290  0.0000
  O1     O1        0.473848372422483    0.991944217204677    0.177441923800579  0.0000
  O1     O1        0.969543939235236    0.965643152053076    0.777175891637469  0.0000
  O1     O1        0.469797169424284    0.992425121168527    0.669465190646912  0.0000
  O1     O1        0.612108706208843    0.141207209833962    0.103149869758127  0.0000
  O1     O1        0.865020057271369    0.871221146328954    0.101426540836074  0.0000
  O1     O1        0.363717364751513    0.102199919745420    0.850904454704810  0.0000
  O1     O1        0.116512470898034    0.848661939304264    0.852545603247561  0.0000
  O1     O1        0.410990658959583    0.763151886402831    0.855787559015718  0.0000
  O1     O1        0.080201778673716    0.193932270505597    0.860606500980175  0.0000
  O3     O3        0.588062418195552    0.782606355741422    0.083910712957999  0.0000
  O1     O1        0.910142517580987    0.208047900379454    0.098153862519306  0.0000
  O1     O1        0.513619244945840    0.022117521929003    0.920911776774945  0.0000
  O1     O1        0.014911338025307    0.953657147222563    0.032027472471965  0.0000
  O3     O3        0.156091839109084    0.524875414052766    0.312674576111406  0.0000
  O1     O1        0.339306090002547    0.464457949848134    0.321535198691767  0.0000
  O1     O1        0.839667155875356    0.507155033464198    0.632595484749622  0.0000
  O2     O2        0.652403180461836    0.464325451535019    0.658558321058240  0.0000
  O1     O1        0.234161992258000    0.217209517518129    0.268301421273669  0.0000
  O3     O3        0.254663837992225    0.759226541226618    0.259141331011982  0.0000
  O3     O3        0.750452278185647    0.219697288888269    0.690107812675096  0.0000
  O3     O3        0.728054885233450    0.749807376282984    0.683006894048222  0.0000
  O1     O1        0.110738446136482    0.307333440465122    0.110175670255574  0.0000
  O1     O1        0.374812445093324    0.658732657757809    0.104958720644455  0.0000
  O1     O1        0.870232987001706    0.307796440257958    0.849591242666213  0.0000
  O2     O2        0.622100161763311    0.673412176122524    0.850843661859833  0.0000
  O1     O1        0.851693219443473    0.730899246049379    0.848291285780038  0.0000
  O3     O3        0.636590578306013    0.243734326082097    0.848672730662024  0.0000
  O3     O3        0.139493390931910    0.713750084677571    0.106449332977013  0.0000
  O1     O1        0.357810377038305    0.241799080663737    0.105803127335266  0.0000
  O3     O3        0.651356578972507    0.481977189924430    0.054493190045938  0.0000
  O1     O1        0.840959616030757    0.522435830762736    0.063560423430903  0.0000
  O1     O1        0.336605861571838    0.451362438464475    0.892089114791425  0.0000
  O1     O1        0.151493898613633    0.507919362703285    0.890749668201789  0.0000
  O1     O1        0.757567774836099    0.223705036106552    0.024168111699458  0.0000
  O3     O3        0.727141758068313    0.762737016365763    0.011557331822552  0.0000
  O1     O1        0.228382964426586    0.209301468031917    0.956690656670623  0.0000
  O1     O1        0.260611268287055    0.758758103200615    0.935187672707267  0.0000
