data_c00163.vasp
_audit_creation_method             Generated by GULP
_audit_author_name                 Salvador R. G. Balestra
_symmetry_space_group_name_H-M     'P 1             '
_symmetry_Int_Tables_number        1

loop_
_symmetry_equiv_pos_site_id
_symmetry_equiv_pos_as_xyz
_cell_length_a                       17.6352
_cell_length_b                        7.8553
_cell_length_c                       10.2106
_cell_angle_alpha                   89.1662
_cell_angle_beta                    90.5585
_cell_angle_gamma                   88.0952

loop_
_atom_site_label
_atom_site_type_symbol
_atom_site_fract_x
_atom_site_fract_y
_atom_site_fract_z
_atom_site_charge
  Ge     Ge        0.052090000000021    0.000000000000000    0.372269999999958  0.0000
  Ge     Ge        0.440724511244257    0.959345801708160    0.329366192486791  0.0000
  Ge     Ge        0.942307310215639    0.956268399014775    0.617333241680085  0.0000
  Ge     Ge        0.546357222584049    0.007049729321704    0.584086397774872  0.0000
  Ge     Ge        0.545897895715893    0.011799882046835    0.077674219677511  0.0000
  Ge     Ge        0.941289383981379    0.951207173149059    0.126410258577398  0.0000
  Ge     Ge        0.437643834762324    0.961950629866358    0.828721152118682  0.0000
  Ge     Ge        0.043703482914038    0.024109237704661    0.874325362891007  0.0000
  Ge     Ge        0.143944122351108    0.318727252292063    0.253820728119193  0.0000
  Ge     Ge        0.344378725683137    0.645043086712020    0.260087258707600  0.0000
  Ge     Ge        0.820369349579099    0.244724726565300    0.689315719346818  0.0000
  Ge     Ge        0.842796019846542    0.644141328500599    0.686053004554183  0.0000
  Ge     Ge        0.638112934209015    0.323694067786502    0.697108496047896  0.0000
  Ge     Ge        0.640245742252736    0.326878576940276    0.011950024915961  0.0000
  Ge     Ge        0.850475438007496    0.641625147972161    0.005270182063336  0.0000
  Ge     Ge        0.322206615846248    0.260800281430368    0.946529639434863  0.0000
  Ge     Ge        0.167929794033664    0.733099154594696    0.948278058431400  0.0000
  Ge     Ge        0.141022572261525    0.333932259625153    0.936334949423294  0.0000
  Ge     Ge        0.670513180649136    0.725193469912635    0.008570147203676  0.0000
  Ge     Ge        0.821233278575902    0.239725796730891    0.006427056162044  0.0000
  Si     Si        0.665133871691936    0.717914887073136    0.696875416232682  0.0000
  Si     Si        0.165686388595490    0.711986620002018    0.258031259100041  0.0000
  Si     Si        0.323756479035710    0.251266504123804    0.256476103373685  0.0000
  Si     Si        0.345312431784217    0.659159476633074    0.951621275665984  0.0000
  O1     O1        0.084527117415980    0.201167736287780    0.346657879847930  0.0000
  O1     O1        0.402695585234173    0.762224067486301    0.354377065558552  0.0000
  O1     O1        0.870150308628385    0.106303279171285    0.592230092164493  0.0000
  O3     O3        0.620598905615290    0.861874387465746    0.611896755971753  0.0000
  O1     O1        0.903714366675243    0.761158955031894    0.594697810426489  0.0000
  O1     O1        0.574790060605259    0.211208262084372    0.607321145805496  0.0000
  O3     O3        0.124205637702149    0.851437791865128    0.346756477962121  0.0000
  O3     O3        0.368601872529645    0.113492641102454    0.346993593591308  0.0000
  O1     O1        0.023444292875657    0.988145228954976    0.532961652879359  0.0000
  O1     O1        0.518983877546502    0.992678056601588    0.421815590397952  0.0000
  O1     O1        0.970846074983353    0.958524704335113    0.287146182817152  0.0000
  O1     O1        0.469662931995156    0.965039346281770    0.168614033132367  0.0000
  O1     O1        0.968783665886903    0.971129273444527    0.780988497699375  0.0000
  O1     O1        0.465761231456986    0.960557951594453    0.668081856268462  0.0000
  O1     O1        0.578755199225150    0.212366238708578    0.104354677534572  0.0000
  O1     O1        0.918307346913501    0.745903386775817    0.090135300158417  0.0000
  O1     O1        0.370730471911164    0.123120113875496    0.849112998308294  0.0000
  O1     O1        0.121127992757604    0.884954537002858    0.857779311659271  0.0000
  O3     O3        0.403532008803927    0.762585245257490    0.865171118351058  0.0000
  O1     O1        0.076897306280943    0.224932514601221    0.845573536930843  0.0000
  O1     O1        0.621544029882284    0.868972386229562    0.099740699307276  0.0000
  O1     O1        0.863504018231953    0.085798014392863    0.103995675858505  0.0000
  O1     O1        0.518231015856278    0.999974685933581    0.915554574041140  0.0000
  O1     O1        0.016211602507526    0.016137247052784    0.035754932345033  0.0000
  O3     O3        0.149523916546636    0.523658807871713    0.313269598603127  0.0000
  O3     O3        0.340400807377031    0.437216043624434    0.313630880848254  0.0000
  O1     O1        0.834874468031143    0.445762927157971    0.625295977668168  0.0000
  O3     O3        0.649679667421888    0.531085912313392    0.640083259940341  0.0000
  O3     O3        0.234200937770083    0.223472350099305    0.255586581261542  0.0000
  O3     O3        0.255037147552179    0.741596044622643    0.260235796169468  0.0000
  O1     O1        0.724615561396976    0.215745271780222    0.690640358529646  0.0000
  O3     O3        0.754660034755604    0.749961750494953    0.692540207597584  0.0000
  O1     O1        0.111002710811938    0.330911515584572    0.096864694981640  0.0000
  O3     O3        0.376227773025712    0.645897545241751    0.100166669082484  0.0000
  O1     O1        0.854276202491195    0.227848592086284    0.848377814584341  0.0000
  O3     O3        0.638308193648047    0.726319077037158    0.846920669810862  0.0000
  O1     O1        0.876500144779214    0.626976788791880    0.844346883970545  0.0000
  O1     O1        0.605619009010580    0.336833097230467    0.853483630697639  0.0000
  O3     O3        0.135417953042168    0.731544385917881    0.108813008627632  0.0000
  O3     O3        0.353623891083556    0.237597678682148    0.107544477558553  0.0000
  O1     O1        0.653915339928674    0.524151181630479    0.071741265292569  0.0000
  O1     O1        0.839363013480987    0.439570384864977    0.065661457065823  0.0000
  O3     O3        0.335189209526900    0.470950213287455    0.896802797118109  0.0000
  O1     O1        0.148685658168995    0.538173074299862    0.882157572750749  0.0000
  O1     O1        0.725497934086585    0.213699175939144    0.003105529996701  0.0000
  O1     O1        0.765629461289201    0.757261351470762    0.014119367281384  0.0000
  O1     O1        0.227678161520488    0.225756419501268    0.934659453190625  0.0000
  O3     O3        0.264389270370260    0.761975431561787    0.949163067266503  0.0000
