data_c00185.vasp
_audit_creation_method             Generated by GULP
_audit_author_name                 Salvador R. G. Balestra
_symmetry_space_group_name_H-M     'P 1             '
_symmetry_Int_Tables_number        1

loop_
_symmetry_equiv_pos_site_id
_symmetry_equiv_pos_as_xyz
_cell_length_a                       17.7340
_cell_length_b                        7.8048
_cell_length_c                       10.1493
_cell_angle_alpha                   89.3612
_cell_angle_beta                    90.8809
_cell_angle_gamma                   90.9870

loop_
_atom_site_label
_atom_site_type_symbol
_atom_site_fract_x
_atom_site_fract_y
_atom_site_fract_z
_atom_site_charge
  Ge     Ge        0.052090000000021    0.000000000000000    0.372269999999958  0.0000
  Ge     Ge        0.444552246024501    0.050123540102711    0.361660130036051  0.0000
  Ge     Ge        0.941109562029383    0.068223522290830    0.610818722100025  0.0000
  Ge     Ge        0.550985939009789    0.023719787358141    0.621136211835356  0.0000
  Ge     Ge        0.552037705104135    0.012175793862346    0.116784777684009  0.0000
  Ge     Ge        0.940899524517241    0.066328919338291    0.124352874833906  0.0000
  Ge     Ge        0.442993051693886    0.066671952060392    0.868972209031528  0.0000
  Ge     Ge        0.041187540652808    0.002584530078926    0.869792427572813  0.0000
  Ge     Ge        0.173050808708843    0.283386567265598    0.256268794967048  0.0000
  Ge     Ge        0.325310972576024    0.756813816067076    0.256631982279311  0.0000
  Ge     Ge        0.843397374944099    0.383611411173475    0.678854867937887  0.0000
  Ge     Ge        0.819869597505146    0.783896705043386    0.681356442183605  0.0000
  Ge     Ge        0.144518299444995    0.685305679536469    0.258780683271870  0.0000
  Ge     Ge        0.668620061320934    0.308349855557459    0.999241374712540  0.0000
  Ge     Ge        0.819532222400480    0.785676086391290    0.003971410207036  0.0000
  Ge     Ge        0.342332651857176    0.375889413006314    0.929170227291953  0.0000
  Ge     Ge        0.142790855872592    0.692284688481180    0.936871705048637  0.0000
  Ge     Ge        0.319957903991510    0.780428348314307    0.938262914913383  0.0000
  Ge     Ge        0.166890547167554    0.286375327754837    0.935903367682883  0.0000
  Ge     Ge        0.848386381448050    0.381622664794351    0.002000209401646  0.0000
  Si     Si        0.644721450586530    0.707634158413147    0.687050266668151  0.0000
  Si     Si        0.666832195842842    0.313048482221006    0.687658887711419  0.0000
  Si     Si        0.348375149006826    0.361062510690230    0.244692061654885  0.0000
  Si     Si        0.644410280700047    0.710454355705223    0.994733646538982  0.0000
  O1     O1        0.130326213690813    0.127608238444829    0.349218444744728  0.0000
  O1     O1        0.375466341180724    0.894855459908656    0.355275336863896  0.0000
  O1     O1        0.905030905296034    0.268837240439714    0.587771015275651  0.0000
  O3     O3        0.586135376404649    0.817472155724113    0.601779173595695  0.0000
  O1     O1        0.867173207012526    0.926635050787446    0.583785647175645  0.0000
  O3     O3        0.619679423478842    0.183220945262177    0.596448143614284  0.0000
  O1     O1        0.077750709522196    0.793263193982925    0.344525288134583  0.0000
  O3     O3        0.412651629337381    0.251000706492312    0.315683384501064  0.0000
  O1     O1        0.022226206604982    0.023254097680109    0.532404395046427  0.0000
  O1     O1        0.474170317000730    0.059510634593676    0.524389804823288  0.0000
  O1     O1        0.972546254631419    0.059072882350510    0.285117224939550  0.0000
  O1     O1        0.524784610150005    0.001251095280727    0.278344377444092  0.0000
  O1     O1        0.963800245939217    0.046590466796534    0.777224973909770  0.0000
  O1     O1        0.521200669717317    0.030746555586375    0.781144882547058  0.0000
  O1     O1        0.620546430465335    0.168298646690756    0.097622676463346  0.0000
  O1     O1        0.862612397759049    0.936722629628393    0.100062876220631  0.0000
  O1     O1        0.408325022906520    0.269677597162093    0.843522877529149  0.0000
  O1     O1        0.077137711279937    0.801964075820922    0.845925403198291  0.0000
  O1     O1        0.370531149877096    0.920820753644148    0.843155144180339  0.0000
  O1     O1        0.112174868540374    0.152125258091896    0.843116333323215  0.0000
  O3     O3        0.581831883416857    0.809780729751056    0.072532607634088  0.0000
  O1     O1        0.916742979597732    0.273942839422226    0.087418660908118  0.0000
  O1     O1        0.470963850419709    0.058691029889445    0.032442160655706  0.0000
  O1     O1        0.015379610157239    0.002564620965438    0.033290368139141  0.0000
  O1     O1        0.154044437321056    0.480574767578228    0.320075057996217  0.0000
  O3     O3        0.338942613023334    0.546244862967553    0.310112477993478  0.0000
  O1     O1        0.838526769891845    0.585839867864092    0.617652669681479  0.0000
  O2     O2        0.653458677127787    0.511612875517281    0.640121016582879  0.0000
  O3     O3        0.269647457071901    0.254116277506076    0.253315938387485  0.0000
  O1     O1        0.230188407253827    0.792281708916826    0.265432588883102  0.0000
  O3     O3        0.755439718019453    0.279636314130777    0.680035038656364  0.0000
  O3     O3        0.723618919978869    0.810270989476226    0.676566492107862  0.0000
  O1     O1        0.138782074595419    0.268721924507757    0.097527132810370  0.0000
  O1     O1        0.354195495906238    0.791066801580744    0.097862846729573  0.0000
  O1     O1        0.873894157913309    0.395741821573871    0.839691084202534  0.0000
  O2     O2        0.620386877765882    0.701763222762622    0.840026236287092  0.0000
  O1     O1        0.849025639172826    0.800864988244229    0.843512882540684  0.0000
  O3     O3        0.639057738064267    0.284835049900782    0.836827518506722  0.0000
  O1     O1        0.115269855425681    0.666973848599147    0.097891776825972  0.0000
  O3     O3        0.368383542451828    0.399603743437296    0.093786544710794  0.0000
  O3     O3        0.653320283376381    0.517975433959242    0.048186683115499  0.0000
  O1     O1        0.840522043604556    0.584338839769322    0.062623975897920  0.0000
  O1     O1        0.329275036008097    0.578368769364859    0.871916096319927  0.0000
  O1     O1        0.155978016778216    0.493277336829586    0.876098059270177  0.0000
  O1     O1        0.763158863598733    0.273033968198291    0.012165092480686  0.0000
  O3     O3        0.723073684135613    0.814807330236553    0.008602852989734  0.0000
  O1     O1        0.261438825485966    0.249507801436613    0.926016474132838  0.0000
  O1     O1        0.224863483787456    0.815723342626766    0.939411606076131  0.0000
