data_c00110.vasp
_audit_creation_method             Generated by GULP
_audit_author_name                 Salvador R. G. Balestra
_symmetry_space_group_name_H-M     'P 1             '
_symmetry_Int_Tables_number        1

loop_
_symmetry_equiv_pos_site_id
_symmetry_equiv_pos_as_xyz
_cell_length_a                       17.6294
_cell_length_b                        7.8424
_cell_length_c                       10.2193
_cell_angle_alpha                   90.8432
_cell_angle_beta                    90.0980
_cell_angle_gamma                   91.7004

loop_
_atom_site_label
_atom_site_type_symbol
_atom_site_fract_x
_atom_site_fract_y
_atom_site_fract_z
_atom_site_charge
  Ge     Ge        0.052090000000021    0.000000000000000    0.372269999999958  0.0000
  Ge     Ge        0.444651892969925    0.058698197088608    0.338298505422935  0.0000
  Ge     Ge        0.945792508029696    0.024606441889658    0.623912976452293  0.0000
  Ge     Ge        0.548637866550781    0.980985214223917    0.586673490524636  0.0000
  Ge     Ge        0.543267241572674    0.982716207666012    0.080295674399273  0.0000
  Ge     Ge        0.940542439610682    0.044409500818249    0.131903432510849  0.0000
  Ge     Ge        0.437932320684052    0.041781290302584    0.828846359733125  0.0000
  Ge     Ge        0.049062373906690    0.984903523691827    0.884006025027706  0.0000
  Ge     Ge        0.167227018536554    0.298168918276749    0.261742311643141  0.0000
  Ge     Ge        0.321007752762559    0.773353931382652    0.260314525186233  0.0000
  Ge     Ge        0.845498477831344    0.340424085874523    0.691725900846982  0.0000
  Ge     Ge        0.639259875506890    0.663445602766619    0.697449533224451  0.0000
  Ge     Ge        0.821629708665294    0.740336234256444    0.691881965281357  0.0000
  Ge     Ge        0.349956225118359    0.371946401899053    0.265403457464343  0.0000
  Ge     Ge        0.669423464285333    0.268891644878525    0.013581343623566  0.0000
  Ge     Ge        0.820257888374213    0.754825550038571    0.009651683475733  0.0000
  Ge     Ge        0.350362240145620    0.363007067146681    0.949196395107413  0.0000
  Ge     Ge        0.166330660732823    0.287834966281459    0.948044700467683  0.0000
  Ge     Ge        0.639829770624821    0.669052568230364    0.013380453968414  0.0000
  Ge     Ge        0.848838401215485    0.351701927069375    0.011012049644204  0.0000
  Si     Si        0.667137108821118    0.269673970112452    0.701863098005731  0.0000
  Si     Si        0.145727586047590    0.694474626049565    0.252075288972653  0.0000
  Si     Si        0.149775040494847    0.679445954561259    0.944350118353035  0.0000
  Si     Si        0.324176381683778    0.756955295260175    0.947203344241245  0.0000
  O1     O1        0.120305077870280    0.158740293465828    0.362508320504633  0.0000
  O1     O1        0.367689498818980    0.919478797142556    0.356724681125192  0.0000
  O1     O1        0.908091794784853    0.222484653636555    0.603921153622661  0.0000
  O1     O1        0.576442576436581    0.775358151760557    0.605441393548798  0.0000
  O1     O1        0.872053555936771    0.879809241363146    0.596777173894181  0.0000
  O3     O3        0.623034910193227    0.121862433138675    0.621112964374598  0.0000
  O3     O3        0.080958781030307    0.800115465593990    0.321038091423021  0.0000
  O1     O1        0.412335487253507    0.261126802267199    0.359345857997481  0.0000
  O1     O1        0.024999590677772    0.988981540862807    0.533911410011565  0.0000
  O1     O1        0.522942842736394    0.010942864342845    0.425579959101667  0.0000
  O1     O1        0.969636766554263    0.044394336065118    0.292284873597524  0.0000
  O1     O1        0.468412767477227    0.031104065486817    0.174895721413791  0.0000
  O1     O1        0.972444886442971    0.003732890418658    0.786075896254625  0.0000
  O1     O1        0.466083622826073    0.022895707118718    0.668797651243017  0.0000
  O1     O1        0.618403144805930    0.126764560812753    0.103213824524262  0.0000
  O1     O1        0.864494652367621    0.906726606320940    0.106379522992507  0.0000
  O1     O1        0.410719255624913    0.248219813627273    0.854565088887006  0.0000
  O3     O3        0.092077654299993    0.788496467772803    0.864197201002024  0.0000
  O3     O3        0.361804890113428    0.903277893928101    0.860886121649310  0.0000
  O1     O1        0.115976774366444    0.143778532420399    0.853769853427632  0.0000
  O1     O1        0.576465916945657    0.781757438532597    0.104753341447711  0.0000
  O1     O1        0.916356229761574    0.249485602831822    0.096733042238160  0.0000
  O1     O1        0.515774845539858    0.993681442242371    0.918393143718510  0.0000
  O1     O1        0.018345337416500    0.987941690978171    0.042924401739126  0.0000
  O3     O3        0.153229066177513    0.508503193367367    0.312791768491910  0.0000
  O1     O1        0.341304361149085    0.575837433895546    0.320610908951197  0.0000
  O1     O1        0.837525145078505    0.538670273764525    0.629680592363190  0.0000
  O3     O3        0.650371824075630    0.454775937193747    0.642150693897617  0.0000
  O1     O1        0.262701942642198    0.266377960373210    0.265228828417602  0.0000
  O3     O3        0.224339570731099    0.803218254789899    0.268083804729126  0.0000
  O3     O3        0.756586230861526    0.237212535402016    0.697049226306014  0.0000
  O1     O1        0.725811941070943    0.769663896782745    0.690039407365672  0.0000
  O1     O1        0.134049552212474    0.262131268792180    0.105838675045666  0.0000
  O3     O3        0.350262306722504    0.778995191059940    0.097862556035256  0.0000
  O1     O1        0.876816973395901    0.360185982256504    0.850571634978087  0.0000
  O1     O1        0.606746230148156    0.656954762563423    0.854418799262735  0.0000
  O1     O1        0.853019945621614    0.760688715041390    0.851581590824551  0.0000
  O3     O3        0.639096241235580    0.267336317327875    0.851455574492606  0.0000
  O2     O2        0.127386601859393    0.662981948342162    0.097879777466374  0.0000
  O1     O1        0.382961346235935    0.370547042208607    0.106896933352800  0.0000
  O1     O1        0.652941851940609    0.471774995862349    0.074319422032377  0.0000
  O1     O1        0.835997526666985    0.553991564888657    0.069744265858731  0.0000
  O3     O3        0.346666626082739    0.571052632618208    0.894110555256320  0.0000
  O3     O3        0.150578252860960    0.489844889789552    0.886941443290699  0.0000
  O1     O1        0.764299654353796    0.234709511052323    0.020491346387977  0.0000
  O1     O1        0.724506155784816    0.784742014211675    0.008196045055370  0.0000
  O1     O1        0.262209893275463    0.263288863066173    0.945394918693642  0.0000
  O2     O2        0.233011012249470    0.772018108518896    0.939489287504682  0.0000
