data_c00153.vasp
_audit_creation_method             Generated by GULP
_audit_author_name                 Salvador R. G. Balestra
_symmetry_space_group_name_H-M     'P 1             '
_symmetry_Int_Tables_number        1

loop_
_symmetry_equiv_pos_site_id
_symmetry_equiv_pos_as_xyz
_cell_length_a                       17.5891
_cell_length_b                        7.8690
_cell_length_c                       10.5070
_cell_angle_alpha                   89.0579
_cell_angle_beta                    90.0794
_cell_angle_gamma                   89.7927

loop_
_atom_site_label
_atom_site_type_symbol
_atom_site_fract_x
_atom_site_fract_y
_atom_site_fract_z
_atom_site_charge
  Ge     Ge        0.052090000000021    0.000000000000000    0.372269999999958  0.0000
  Ge     Ge        0.448568227135984    0.020780719632133    0.344960643828830  0.0000
  Ge     Ge        0.949263453023058    0.995371090045654    0.627329540003956  0.0000
  Ge     Ge        0.549368008079219    0.024522224540669    0.602138576125571  0.0000
  Ge     Ge        0.548151628421818    0.016745841907174    0.086412351931405  0.0000
  Ge     Ge        0.942162711913805    0.993239992529846    0.128072823749774  0.0000
  Ge     Ge        0.436416477387774    0.030551118196677    0.841416213842529  0.0000
  Ge     Ge        0.052312748827544    0.033632071700873    0.887020791532026  0.0000
  Ge     Ge        0.167458826698115    0.299949358768599    0.254287834399073  0.0000
  Ge     Ge        0.331150168366795    0.744840515972405    0.263473637411570  0.0000
  Ge     Ge        0.827336434835672    0.278064237571543    0.702060762004058  0.0000
  Ge     Ge        0.846312834668748    0.681027060900474    0.697620759164009  0.0000
  Ge     Ge        0.644405931161171    0.342061669068709    0.706904372824733  0.0000
  Ge     Ge        0.349265292001020    0.339792108801702    0.259923477495436  0.0000
  Ge     Ge        0.641275906134039    0.341965780518426    0.012716421205054  0.0000
  Ge     Ge        0.855403577381366    0.673823500564828    0.009300542078281  0.0000
  Ge     Ge        0.346697112327365    0.357275718161486    0.947991506306475  0.0000
  Ge     Ge        0.165672020364092    0.330204700019760    0.944192208122329  0.0000
  Ge     Ge        0.674118508738007    0.740476910039482    0.015706176520564  0.0000
  Ge     Ge        0.824669915271028    0.271484314652707    0.009958604026495  0.0000
  Si     Si        0.668565976556972    0.738282505237211    0.711382757556494  0.0000
  Si     Si        0.149431328953620    0.698179796088263    0.263273049070837  0.0000
  Si     Si        0.150874174465142    0.718455751412984    0.970941972821948  0.0000
  Si     Si        0.330078748044847    0.751306272417357    0.965561167933829  0.0000
  O1     O1        0.114536389711268    0.160694792321746    0.341897647280252  0.0000
  O1     O1        0.372454482034253    0.884002489687563    0.364056437155188  0.0000
  O1     O1        0.878676013202371    0.145756537956010    0.607698059684425  0.0000
  O3     O3        0.620478869372133    0.879221166587386    0.635625218126132  0.0000
  O1     O1        0.906961042626519    0.800927788144778    0.607439336009663  0.0000
  O1     O1        0.582831689519166    0.227820451161852    0.615740575176687  0.0000
  O3     O3        0.095784098180108    0.803966762594720    0.354278850627552  0.0000
  O1     O1        0.413736639168786    0.223851610828455    0.347922788592957  0.0000
  O1     O1        0.025040109507525    0.019493235893162    0.528571918265585  0.0000
  O1     O1        0.522295347672452    0.992642566435844    0.447477842127712  0.0000
  O1     O1        0.970477023508479    0.007842560421932    0.283753517650679  0.0000
  O1     O1        0.481562677182974    0.967728435601363    0.196313222541227  0.0000
  O1     O1        0.979685229432718    0.011384124522806    0.782907103725123  0.0000
  O1     O1        0.467443206497058    0.000006193694643    0.689190828155173  0.0000
  O1     O1        0.578139723835932    0.223838694172959    0.101281799459517  0.0000
  O1     O1        0.923164674618566    0.786049279948048    0.089065598873654  0.0000
  O1     O1        0.407966877985487    0.238033312071718    0.859825814536688  0.0000
  O3     O3        0.108508637044131    0.850394594396507    0.881053235709157  0.0000
  O3     O3        0.359827852303411    0.894575258125421    0.869518973001667  0.0000
  O1     O1        0.110344988860041    0.203010791462851    0.852267111052700  0.0000
  O1     O1        0.627162246263262    0.887916049290812    0.100970802499108  0.0000
  O1     O1        0.863072044873430    0.117672355319810    0.106812633378606  0.0000
  O1     O1        0.511848440404324    0.980574436614800    0.937366781467127  0.0000
  O1     O1        0.015120623617085    0.069437064183449    0.035018786391959  0.0000
  O3     O3        0.127526354031066    0.501539645804401    0.266935610817691  0.0000
  O1     O1        0.373061563338908    0.549012165652918    0.274720772687926  0.0000
  O1     O1        0.839948668784457    0.481029793928567    0.640971353345445  0.0000
  O3     O3        0.654515187775620    0.551170317334022    0.654485336012637  0.0000
  O1     O1        0.258426389419275    0.302342675639117    0.312938362025295  0.0000
  O3     O3        0.236623325171492    0.720098278562800    0.303830565285979  0.0000
  O1     O1        0.731313934652763    0.241706448114709    0.702528705451122  0.0000
  O3     O3        0.757728370814526    0.780620737005416    0.701930957083184  0.0000
  O1     O1        0.170741130755498    0.247336036107334    0.097144128416991  0.0000
  O3     O3        0.339161796846642    0.819755680039825    0.107679860836697  0.0000
  O1     O1        0.859288653066950    0.260385932619162    0.857056977239672  0.0000
  O3     O3        0.644164851111358    0.734630286564425    0.858392242445496  0.0000
  O1     O1        0.879376735548857    0.667969477739212    0.851669130632269  0.0000
  O1     O1        0.608133152930226    0.340004220951889    0.858156911301377  0.0000
  O2     O2        0.137110446393558    0.772794131250962    0.118236254562633  0.0000
  O1     O1        0.353291480342655    0.282608168044735    0.102307449435924  0.0000
  O1     O1        0.652638666849271    0.539130470544267    0.073736793240372  0.0000
  O1     O1        0.845685394302220    0.470517847267211    0.067304724894365  0.0000
  O3     O3        0.372701420725028    0.571464692361055    0.947781240698693  0.0000
  O3     O3        0.122079835360739    0.528728235180872    0.948135296141026  0.0000
  O1     O1        0.728566217789183    0.242780808763878    0.005549476813986  0.0000
  O1     O1        0.769247834906869    0.777586535361154    0.024084479109810  0.0000
  O1     O1        0.256741593916966    0.334965069282834    0.887372611966003  0.0000
  O2     O2        0.241140242884160    0.708179599027768    0.943181551516906  0.0000
