data_c00102.vasp
_audit_creation_method             Generated by GULP
_audit_author_name                 Salvador R. G. Balestra
_symmetry_space_group_name_H-M     'P 1             '
_symmetry_Int_Tables_number        1

loop_
_symmetry_equiv_pos_site_id
_symmetry_equiv_pos_as_xyz
_cell_length_a                       17.8047
_cell_length_b                        7.8457
_cell_length_c                       10.2257
_cell_angle_alpha                   91.7582
_cell_angle_beta                    91.5034
_cell_angle_gamma                   90.2517

loop_
_atom_site_label
_atom_site_type_symbol
_atom_site_fract_x
_atom_site_fract_y
_atom_site_fract_z
_atom_site_charge
  Ge     Ge        0.052090000000021    0.000000000000000    0.372269999999958  0.0000
  Ge     Ge        0.451511945763427    0.051336396106755    0.359348940218814  0.0000
  Ge     Ge        0.937924040486824    0.968694226514554    0.607782128094392  0.0000
  Ge     Ge        0.542115225436205    0.015045891064304    0.632457745373499  0.0000
  Ge     Ge        0.550902510958561    0.020053404564158    0.091038062902639  0.0000
  Ge     Ge        0.948780908525159    0.002390917794726    0.110908794600547  0.0000
  Ge     Ge        0.429425155024060    0.004261609812262    0.862193220536884  0.0000
  Ge     Ge        0.050764808939914    0.971722353191346    0.860464027336928  0.0000
  Ge     Ge        0.173575433414005    0.279595739539245    0.306977789077989  0.0000
  Ge     Ge        0.332688517814417    0.751138901929452    0.289412295709530  0.0000
  Ge     Ge        0.818704595861821    0.251249688071249    0.730332417604168  0.0000
  Ge     Ge        0.656713204792908    0.709645195360162    0.720628850966401  0.0000
  Ge     Ge        0.837573971884506    0.668581791496851    0.716223062744101  0.0000
  Ge     Ge        0.152753250209600    0.685958834090874    0.298013417640024  0.0000
  Ge     Ge        0.849107399068652    0.682863805519534    0.031775036531624  0.0000
  Ge     Ge        0.138767915112551    0.653526310673052    0.980948848417151  0.0000
  Ge     Ge        0.322292659677876    0.716785907339254    0.976102596560998  0.0000
  Ge     Ge        0.170852226647351    0.251175625094040    0.981865788841838  0.0000
  Ge     Ge        0.669188104724938    0.730350951884992    0.045300613518846  0.0000
  Ge     Ge        0.823963417746038    0.271017002244018    0.042827627102653  0.0000
  Si     Si        0.650515473053428    0.320437859359828    0.737138064356246  0.0000
  Si     Si        0.345110989465387    0.353220445427785    0.299967801084451  0.0000
  Si     Si        0.655658789254198    0.344165622434536    0.045195302477088  0.0000
  Si     Si        0.344419169633920    0.324569627225374    0.986690085688534  0.0000
  O1     O1        0.120697729040156    0.153843215317270    0.402426590552356  0.0000
  O1     O1        0.386903041078256    0.891437917149908    0.382944220785868  0.0000
  O1     O1        0.866957775742118    0.110619678257454    0.634814800190513  0.0000
  O1     O1        0.597081917611356    0.837384004004263    0.634778087354108  0.0000
  O1     O1        0.900947882172097    0.767348701134566    0.619730761379023  0.0000
  O3     O3        0.585516405044114    0.182703071487161    0.720541867319990  0.0000
  O1     O1        0.093929025447951    0.806004560759360    0.392677845890433  0.0000
  O3     O3        0.411946281097002    0.253309033236042    0.368382191629491  0.0000
  O1     O1        0.970372156487305    0.009702955315532    0.454846447978103  0.0000
  O1     O1        0.524875745603588    0.052766323836925    0.470096883234556  0.0000
  O1     O1        0.025567091438593    0.029485554867704    0.211159954020105  0.0000
  O1     O1        0.482895399500543    0.022018676304647    0.203865478068388  0.0000
  O1     O1        0.018944174981069    0.992042161641206    0.702628114819342  0.0000
  O1     O1        0.455544582522608    0.003726855817149    0.701839895576802  0.0000
  O3     O3        0.587645894950021    0.223546436941060    0.075314025157718  0.0000
  O1     O1        0.915346367784962    0.796847687461920    0.120904669879660  0.0000
  O3     O3        0.409047049221018    0.205668212246176    0.929832468080820  0.0000
  O1     O1        0.073029459593464    0.762497341188654    0.892031846119517  0.0000
  O1     O1        0.359331007068119    0.857424034335541    0.870033648635647  0.0000
  O1     O1        0.131206158480913    0.089290884680181    0.889683121245417  0.0000
  O1     O1        0.622581294680799    0.884925122147977    0.131015220893564  0.0000
  O1     O1        0.876550892112144    0.142509250401252    0.140595493650261  0.0000
  O1     O1        0.509943657896084    0.946156384066706    0.946358783197705  0.0000
  O1     O1        0.979910435914425    0.044221945908278    0.956534567365328  0.0000
  O1     O1        0.160552557131089    0.487362734266942    0.358836032278232  0.0000
  O3     O3        0.342545079778170    0.547228727422917    0.351641381837357  0.0000
  O1     O1        0.854503406048934    0.453412065664941    0.718560693932003  0.0000
  O3     O3        0.623241019983085    0.502415754759445    0.689609732544799  0.0000
  O3     O3        0.269626857730469    0.246644910608238    0.325044044464954  0.0000
  O1     O1        0.238030338842735    0.791488345665363    0.293456231321186  0.0000
  O3     O3        0.725778290315167    0.254050650483834    0.669733287105447  0.0000
  O1     O1        0.747022633881475    0.711309659562997    0.665264519618935  0.0000
  O1     O1        0.149702006151452    0.244747470486778    0.144200487143534  0.0000
  O1     O1        0.359516063954302    0.764628304928814    0.129553049391865  0.0000
  O1     O1        0.823015317552893    0.180880743411922    0.887245664414257  0.0000
  O1     O1        0.658402184086964    0.774677895857631    0.881880135075750  0.0000
  O1     O1        0.851844250577082    0.749825487984269    0.873077415184406  0.0000
  O2     O2        0.678040706578794    0.355958655937107    0.890370515206180  0.0000
  O1     O1        0.114396169634747    0.664912985325366    0.142098008215085  0.0000
  O2     O2        0.353016550439956    0.365475399657389    0.142492918322320  0.0000
  O3     O3        0.632227674089583    0.534069239673039    0.086581802370634  0.0000
  O1     O1        0.865373692902573    0.469003903623383    0.038734144561637  0.0000
  O3     O3        0.343496062149360    0.509207126173874    0.923474484639913  0.0000
  O1     O1        0.141740320125118    0.445221047204467    0.925832186092511  0.0000
  O3     O3        0.734682833028016    0.285782216552346    0.108736468619593  0.0000
  O1     O1        0.761758009340764    0.728566750971295    0.090950396000487  0.0000
  O3     O3        0.266336799377614    0.226035257252308    0.959522602198924  0.0000
  O1     O1        0.227270068783569    0.741643455003499    0.974803361607942  0.0000
