data_c00116.vasp
_audit_creation_method             Generated by GULP
_audit_author_name                 Salvador R. G. Balestra
_symmetry_space_group_name_H-M     'P 1             '
_symmetry_Int_Tables_number        1

loop_
_symmetry_equiv_pos_site_id
_symmetry_equiv_pos_as_xyz
_cell_length_a                       16.9936
_cell_length_b                        7.8081
_cell_length_c                       10.6794
_cell_angle_alpha                   95.1592
_cell_angle_beta                    90.5816
_cell_angle_gamma                   90.4577

loop_
_atom_site_label
_atom_site_type_symbol
_atom_site_fract_x
_atom_site_fract_y
_atom_site_fract_z
_atom_site_charge
  Ge     Ge        0.052090000000021    0.000000000000000    0.372269999999958  0.0000
  Ge     Ge        0.470004678678385    0.056672695691595    0.369496963315254  0.0000
  Ge     Ge        0.960822293414949    0.937367587137565    0.632959091376066  0.0000
  Ge     Ge        0.554329715999696    0.976927170917170    0.631788113277701  0.0000
  Ge     Ge        0.553869199395033    0.071852630166440    0.095089154973188  0.0000
  Ge     Ge        0.942504330189533    0.057220636901638    0.113351784019510  0.0000
  Ge     Ge        0.433376463827537    0.008355889027445    0.853781858113059  0.0000
  Ge     Ge        0.062894203063464    0.973096319287448    0.890027501531784  0.0000
  Ge     Ge        0.174336334628704    0.282667603729418    0.297276420967120  0.0000
  Ge     Ge        0.335113424092726    0.773041032971208    0.285344304607049  0.0000
  Ge     Ge        0.834464518014522    0.235189249991832    0.757042664556452  0.0000
  Ge     Ge        0.663070009870510    0.674375383740295    0.690911299922450  0.0000
  Ge     Ge        0.857657574091245    0.640891151680223    0.709853839814712  0.0000
  Ge     Ge        0.363367729490999    0.341699036085727    0.268239606288351  0.0000
  Ge     Ge        0.648740140418976    0.410240590540945    0.043213906595598  0.0000
  Ge     Ge        0.362134704926752    0.351016538704513    0.979307753667243  0.0000
  Ge     Ge        0.321457668216102    0.749247236783987    0.982845751749688  0.0000
  Ge     Ge        0.165227485220311    0.282153368920560    0.000801028386949  0.0000
  Ge     Ge        0.661489695117309    0.781789676709065    0.984706060963915  0.0000
  Ge     Ge        0.829770470144742    0.350495069457619    0.058591527060806  0.0000
  Si     Si        0.657063320048112    0.296421999481584    0.741784957785359  0.0000
  Si     Si        0.160491578935573    0.683277074654857    0.307592799204436  0.0000
  Si     Si        0.851541048221494    0.726807671052061    0.994869286089741  0.0000
  Si     Si        0.142428347969115    0.660417532409645    0.004870301720210  0.0000
  O1     O1        0.126297717689472    0.150965752740530    0.391895674384896  0.0000
  O1     O1        0.398418461443468    0.899527742344507    0.378254852780706  0.0000
  O1     O1        0.886156029337538    0.064571248054619    0.694556342475975  0.0000
  O1     O1        0.611683051898214    0.801930735587969    0.594019126991145  0.0000
  O1     O1        0.920112048324794    0.734239993824323    0.610264253197510  0.0000
  O3     O3        0.592293976189878    0.147779338108245    0.733848672842123  0.0000
  O3     O3        0.088403477338127    0.791273578979968    0.363844141635162  0.0000
  O1     O1        0.428312449331332    0.255778265306206    0.367994804656941  0.0000
  O1     O1        0.990085065860646    0.017750532659726    0.497270851996967  0.0000
  O1     O1        0.534156510914864    0.060152274048336    0.492238502903773  0.0000
  O1     O1        0.003582067054221    0.023766146985244    0.235199990063808  0.0000
  O1     O1        0.521806383616834    0.009905052998087    0.233198994789630  0.0000
  O1     O1        0.040377175195337    0.933757445392779    0.735018960324866  0.0000
  O1     O1        0.468614698219619    0.937970667100893    0.709292585041703  0.0000
  O1     O1        0.572157263663299    0.287190208675911    0.089297022993419  0.0000
  O3     O3        0.877256526732711    0.882549685086646    0.091691178081353  0.0000
  O1     O1        0.403698618143214    0.222256354658770    0.861863455995568  0.0000
  O3     O3        0.075016493101911    0.790032641080499    0.970824997218165  0.0000
  O1     O1        0.350031794398247    0.893351420236056    0.881323559059779  0.0000
  O1     O1        0.144344782952728    0.108349356576986    0.898507803165417  0.0000
  O1     O1        0.645531734098102    0.975017556789572    0.063602209081318  0.0000
  O1     O1        0.887390117728877    0.236147195534039    0.153635077357958  0.0000
  O1     O1        0.498613539374029    0.974956201948614    0.972964732375395  0.0000
  O1     O1        0.992611701617293    0.085300994159357    0.977360533660088  0.0000
  O3     O3        0.158379330333797    0.495110170487407    0.354949306210303  0.0000
  O1     O1        0.361432238438018    0.560150618148342    0.280553243577599  0.0000
  O1     O1        0.873261605164752    0.426175857765410    0.715122248124720  0.0000
  O3     O3        0.633551589740756    0.460079015410627    0.666822503886191  0.0000
  O1     O1        0.273835139263117    0.248732898970565    0.296941154835676  0.0000
  O3     O3        0.240999647923039    0.784645663339511    0.347350636738584  0.0000
  O3     O3        0.739259251146587    0.216579418297817    0.693154068149879  0.0000
  O1     O1        0.762214627807480    0.681695615887831    0.667315555226442  0.0000
  O1     O1        0.136811428328132    0.234429302027889    0.148152861536028  0.0000
  O1     O1        0.335013969777117    0.837368895316133    0.135591904976633  0.0000
  O1     O1        0.830423323410573    0.226364759149666    0.916123758718646  0.0000
  O1     O1        0.631633691241283    0.779135631908214    0.830128436782362  0.0000
  O3     O3        0.886282846179576    0.744787124253286    0.856585070108525  0.0000
  O3     O3        0.672207081301570    0.379532557476497    0.884033567544203  0.0000
  O2     O2        0.161836429373986    0.658411591407331    0.154412311440254  0.0000
  O1     O1        0.398696291945512    0.282368788185776    0.118463941487908  0.0000
  O1     O1        0.618613328125871    0.619053581178322    0.062009607127512  0.0000
  O3     O3        0.875738489680758    0.546753143091458    0.045939497056048  0.0000
  O1     O1        0.376169798754770    0.563924762951411    0.958215505447862  0.0000
  O3     O3        0.118027602721574    0.467053805575180    0.957334620856726  0.0000
  O1     O1        0.736151559787664    0.371549859993861    0.117796614816881  0.0000
  O3     O3        0.757573619728160    0.708911629808585    0.971973728310639  0.0000
  O1     O1        0.262424584870268    0.340026284105317    0.008258505439021  0.0000
  O3     O3        0.222767495777628    0.719307060173034    0.942741185309853  0.0000
