data_c00144.vasp
_audit_creation_method             Generated by GULP
_audit_author_name                 Salvador R. G. Balestra
_symmetry_space_group_name_H-M     'P 1             '
_symmetry_Int_Tables_number        1

loop_
_symmetry_equiv_pos_site_id
_symmetry_equiv_pos_as_xyz
_cell_length_a                       17.7614
_cell_length_b                        7.7876
_cell_length_c                       10.1956
_cell_angle_alpha                   89.5481
_cell_angle_beta                    90.2762
_cell_angle_gamma                   90.5296

loop_
_atom_site_label
_atom_site_type_symbol
_atom_site_fract_x
_atom_site_fract_y
_atom_site_fract_z
_atom_site_charge
  Ge     Ge        0.052090000000021    0.000000000000000    0.372269999999958  0.0000
  Ge     Ge        0.448382516167614    0.038416900435135    0.331144782321254  0.0000
  Ge     Ge        0.944331290014081    0.047650116326068    0.619393024546109  0.0000
  Ge     Ge        0.551928554080111    0.998977422271326    0.584777666765450  0.0000
  Ge     Ge        0.549026575695307    0.982802206935997    0.069427178211615  0.0000
  Ge     Ge        0.937619785996154    0.040820060857731    0.131946874799667  0.0000
  Ge     Ge        0.439865529583930    0.048263710809113    0.821118671651109  0.0000
  Ge     Ge        0.043141493601489    0.988579288904109    0.880451469839115  0.0000
  Ge     Ge        0.169839872152581    0.292111044004578    0.266924464680379  0.0000
  Ge     Ge        0.321933104068364    0.763970496883686    0.260431570125382  0.0000
  Ge     Ge        0.847202278375049    0.362813549188939    0.691103959925604  0.0000
  Ge     Ge        0.820340282255067    0.770787473978035    0.697071618559372  0.0000
  Ge     Ge        0.667448012379068    0.293647318992189    0.690325028442266  0.0000
  Ge     Ge        0.350174833923353    0.360004990921417    0.267821512608042  0.0000
  Ge     Ge        0.667905948049033    0.277669381119596    0.004640236033197  0.0000
  Ge     Ge        0.821401577219153    0.749132126214338    0.018277092468846  0.0000
  Ge     Ge        0.345830452734983    0.355562189579095    0.948206062013321  0.0000
  Ge     Ge        0.144340892109156    0.675884972150311    0.941519468772964  0.0000
  Ge     Ge        0.319297851296374    0.764857934357349    0.940594611052804  0.0000
  Ge     Ge        0.168526052584008    0.269734945568588    0.950373011599100  0.0000
  Si     Si        0.647727397291143    0.691106884555253    0.704520365617378  0.0000
  Si     Si        0.146815664866908    0.689486822895971    0.255856154960395  0.0000
  Si     Si        0.649322263046644    0.671371731132669    0.017076043143389  0.0000
  Si     Si        0.844440977052922    0.347443870892908    0.002727229560241  0.0000
  O1     O1        0.120755053025075    0.154387245082056    0.366960905278706  0.0000
  O1     O1        0.370308379205109    0.907904875348430    0.353440623279028  0.0000
  O1     O1        0.912069519214242    0.253965648883149    0.600831525215387  0.0000
  O3     O3        0.580185502580097    0.800169657828187    0.644843627113759  0.0000
  O1     O1        0.867875180138244    0.912114136804468    0.599667003942530  0.0000
  O1     O1        0.619412595468650    0.156077405657071    0.589522449952848  0.0000
  O3     O3        0.083932991149254    0.799175772559952    0.329039173847932  0.0000
  O1     O1        0.416774015468139    0.244375524537132    0.352145037487688  0.0000
  O1     O1        0.021830739340321    0.993716402730287    0.533565904783742  0.0000
  O1     O1        0.524747296754605    0.982418965238437    0.422499275443324  0.0000
  O1     O1        0.970406201547775    0.051545734632545    0.290519493890246  0.0000
  O1     O1        0.474604685856700    0.014092814233775    0.168745032953243  0.0000
  O1     O1        0.968054127658468    0.028593720421723    0.784087274946613  0.0000
  O1     O1        0.469661759101224    0.051722592661800    0.661104977949893  0.0000
  O1     O1        0.619932191492369    0.131235587672831    0.097693127485072  0.0000
  O1     O1        0.869902673814606    0.882519137344091    0.120104695689056  0.0000
  O1     O1        0.411940312868977    0.252241567802130    0.858538995095790  0.0000
  O1     O1        0.075555418129732    0.782482858350672    0.858763597397438  0.0000
  O1     O1        0.366888376673709    0.905101116623483    0.841327886237786  0.0000
  O1     O1        0.116958041561554    0.130857047538719    0.857389996259499  0.0000
  O3     O3        0.583731203905563    0.774568376721925    0.085413406085689  0.0000
  O3     O3        0.902559203314795    0.240219717797227    0.089343735123276  0.0000
  O1     O1        0.518147312576489    0.993991649496188    0.910182597406058  0.0000
  O1     O1        0.015649637367521    0.997139891161255    0.042162502809705  0.0000
  O3     O3        0.157633436562970    0.502288536530028    0.320705121426827  0.0000
  O1     O1        0.340604316117775    0.563564934561627    0.324992343713504  0.0000
  O1     O1        0.839723279160428    0.569167980449232    0.638759190450561  0.0000
  O3     O3        0.653182145117815    0.505471078487018    0.638714966348068  0.0000
  O1     O1        0.264498861822866    0.253181746283082    0.272602340205765  0.0000
  O3     O3        0.225289438783200    0.796037071981109    0.261679070268829  0.0000
  O1     O1        0.761978628496702    0.256373119106432    0.682136078628890  0.0000
  O3     O3        0.723917784687911    0.801918479804085    0.684756871588492  0.0000
  O1     O1        0.137399019596974    0.259256254448603    0.110284460265199  0.0000
  O1     O1        0.350830617248637    0.780575969828566    0.099659524194148  0.0000
  O3     O3        0.874418250000583    0.366982545835777    0.855162448470592  0.0000
  O2     O2        0.638632562171646    0.648298418772463    0.859381839194419  0.0000
  O1     O1        0.847361144017272    0.789419883093324    0.859178542954345  0.0000
  O1     O1        0.635320691987207    0.255862516205357    0.846511829343567  0.0000
  O3     O3        0.122623233794297    0.654105092759609    0.107103679904870  0.0000
  O1     O1        0.377313306479003    0.374911459403563    0.106435419760618  0.0000
  O3     O3        0.652446674444819    0.479116667731547    0.072003401122476  0.0000
  O3     O3        0.836254225675172    0.536288067423641    0.061864096047971  0.0000
  O1     O1        0.330365056808308    0.556844195082660    0.886692569987398  0.0000
  O1     O1        0.155932402773767    0.473694013075727    0.885086909618070  0.0000
  O3     O3        0.764207241801065    0.247114460799333    0.001637983521888  0.0000
  O3     O3        0.725809856120406    0.780325509105836    0.037452313312095  0.0000
  O1     O1        0.263631934982526    0.234319381829257    0.948850052115838  0.0000
  O1     O1        0.224454081787289    0.801769152897805    0.933477983737082  0.0000
