data_c00161.vasp
_audit_creation_method             Generated by GULP
_audit_author_name                 Salvador R. G. Balestra
_symmetry_space_group_name_H-M     'P 1             '
_symmetry_Int_Tables_number        1

loop_
_symmetry_equiv_pos_site_id
_symmetry_equiv_pos_as_xyz
_cell_length_a                       17.6237
_cell_length_b                        7.8557
_cell_length_c                       10.1367
_cell_angle_alpha                   89.4744
_cell_angle_beta                    90.4308
_cell_angle_gamma                   87.3592

loop_
_atom_site_label
_atom_site_type_symbol
_atom_site_fract_x
_atom_site_fract_y
_atom_site_fract_z
_atom_site_charge
  Ge     Ge        0.052090000000021    0.000000000000000    0.372269999999958  0.0000
  Ge     Ge        0.439838820421346    0.949893305336687    0.359716399612998  0.0000
  Ge     Ge        0.941457023757158    0.951208545195197    0.614545666032715  0.0000
  Ge     Ge        0.545179808432898    0.009432297873079    0.613803398094164  0.0000
  Ge     Ge        0.545716402635173    0.017397776457053    0.113593650990490  0.0000
  Ge     Ge        0.934074680943811    0.959116617723354    0.133038931022945  0.0000
  Ge     Ge        0.439029525880835    0.960473034688261    0.865162075457591  0.0000
  Ge     Ge        0.035635754275673    0.027459189617914    0.876782538953507  0.0000
  Ge     Ge        0.142052888022134    0.318459922966203    0.253593634507565  0.0000
  Ge     Ge        0.346575354405341    0.635832523073347    0.251015199815305  0.0000
  Ge     Ge        0.821447867490014    0.241420934489437    0.693678287009713  0.0000
  Ge     Ge        0.842474317070918    0.643051575541362    0.681803360126855  0.0000
  Ge     Ge        0.638560183045513    0.323547439898439    0.687678241150512  0.0000
  Ge     Ge        0.632449724328489    0.336721670979375    0.001030547635558  0.0000
  Ge     Ge        0.841922509206233    0.650783333713979    0.006885062766748  0.0000
  Ge     Ge        0.314409565057586    0.251533894509113    0.928840462784115  0.0000
  Ge     Ge        0.162847663712207    0.734816629851486    0.945055391361421  0.0000
  Ge     Ge        0.343351914485351    0.649333121054185    0.933330316390069  0.0000
  Ge     Ge        0.134469847940586    0.334186757639659    0.932862843495150  0.0000
  Ge     Ge        0.817121781159688    0.251082176525089    0.011763977959045  0.0000
  Si     Si        0.666104984350036    0.714630386662526    0.680206750748449  0.0000
  Si     Si        0.165850846736840    0.709404867675413    0.256508741270767  0.0000
  Si     Si        0.321609450257232    0.247171462510325    0.244514650850891  0.0000
  Si     Si        0.663510303764510    0.726074895175710    0.992962068870998  0.0000
  O1     O1        0.082569109130977    0.201653511544508    0.346734966477638  0.0000
  O1     O1        0.406980345128197    0.748589551309866    0.345354975380225  0.0000
  O1     O1        0.867883650995556    0.100868093633394    0.591507124606482  0.0000
  O3     O3        0.615926305506455    0.849696411037576    0.595555913708269  0.0000
  O1     O1        0.906452829598988    0.753464021390458    0.592361277459259  0.0000
  O1     O1        0.582166316498010    0.205017657887360    0.588136607412401  0.0000
  O3     O3        0.126096500596429    0.853705144453441    0.346168407585964  0.0000
  O3     O3        0.366621809576485    0.094378713709250    0.319750971875706  0.0000
  O1     O1        0.023769364863407    0.985660232981979    0.534620313468998  0.0000
  O1     O1        0.466235165295989    0.976204240977835    0.521971630438959  0.0000
  O1     O1        0.968741943315708    0.958943251638938    0.292145809458683  0.0000
  O1     O1        0.522353296977419    0.981296153455792    0.275384795747426  0.0000
  O1     O1        0.962006783961682    0.973767273623782    0.781321517259408  0.0000
  O1     O1        0.517177181203123    0.000024078888737    0.776312250496145  0.0000
  O1     O1        0.572728148039544    0.224489977435407    0.097852811811384  0.0000
  O1     O1        0.906794481854570    0.758019855748979    0.094845170306381  0.0000
  O1     O1        0.365011327160112    0.108245143894901    0.836959515658983  0.0000
  O1     O1        0.112480853246636    0.885220217392656    0.857424507563029  0.0000
  O1     O1        0.405589005337611    0.761249268688825    0.841168441079796  0.0000
  O1     O1        0.067567973504727    0.228526226952322    0.846659679414985  0.0000
  O3     O3        0.619374259850633    0.882040477395460    0.060704908692504  0.0000
  O1     O1        0.856444401242858    0.097432610686625    0.114658595021497  0.0000
  O1     O1        0.464298845716775    0.979990857331639    0.029081898902668  0.0000
  O1     O1        0.008533599558342    0.020404943725959    0.039571954199829  0.0000
  O3     O3        0.148063977733364    0.523511562412570    0.313869897086037  0.0000
  O3     O3        0.341818153554247    0.427712967291125    0.307966599902276  0.0000
  O1     O1        0.837518301241138    0.440545333199891    0.628247167765861  0.0000
  O3     O3        0.650705774635087    0.526248615122778    0.626487854361129  0.0000
  O3     O3        0.232123682254672    0.220309173773123    0.254335006124006  0.0000
  O3     O3        0.255766382550050    0.730430075831426    0.252970281346351  0.0000
  O1     O1        0.725589558727894    0.216131796880705    0.698541460906360  0.0000
  O3     O3        0.754135948674124    0.751404694151868    0.667367257116374  0.0000
  O1     O1        0.107936103203015    0.331364237508192    0.096343523516009  0.0000
  O1     O1        0.378508924241550    0.637265563640663    0.092472891609474  0.0000
  O1     O1        0.853712648031199    0.228297953536264    0.855162544337468  0.0000
  O2     O2        0.644472159322055    0.715832946306362    0.836052722189217  0.0000
  O1     O1        0.869199032132532    0.640530652628842    0.845169943298079  0.0000
  O1     O1        0.598823388240863    0.333148459302450    0.841787463326489  0.0000
  O3     O3        0.132633629386252    0.730256162086436    0.108396912105035  0.0000
  O3     O3        0.345432872962523    0.252835475395017    0.091979022464220  0.0000
  O3     O3        0.639277930045292    0.545936329389508    0.053665503226593  0.0000
  O1     O1        0.838015824621324    0.449018065048529    0.069635695093869  0.0000
  O1     O1        0.329814831523749    0.454175673594332    0.869168226240385  0.0000
  O1     O1        0.145321321755571    0.536986369239296    0.879598217464154  0.0000
  O1     O1        0.720853489036218    0.237020364083708    0.005291879767367  0.0000
  O3     O3        0.752268805201008    0.751924064319943    0.013435072817028  0.0000
  O1     O1        0.219879661293340    0.217767983711773    0.922619052074282  0.0000
  O1     O1        0.257778075594437    0.765700828195620    0.939336565719354  0.0000
