data_c00148.vasp
_audit_creation_method             Generated by GULP
_audit_author_name                 Salvador R. G. Balestra
_symmetry_space_group_name_H-M     'P 1             '
_symmetry_Int_Tables_number        1

loop_
_symmetry_equiv_pos_site_id
_symmetry_equiv_pos_as_xyz
_cell_length_a                       17.5994
_cell_length_b                        7.7742
_cell_length_c                       10.0732
_cell_angle_alpha                   88.9814
_cell_angle_beta                    90.6284
_cell_angle_gamma                   86.7687

loop_
_atom_site_label
_atom_site_type_symbol
_atom_site_fract_x
_atom_site_fract_y
_atom_site_fract_z
_atom_site_charge
  Ge     Ge        0.052090000000021    0.000000000000000    0.372269999999958  0.0000
  Ge     Ge        0.454923905012567    0.923283897822005    0.316020478416552  0.0000
  Ge     Ge        0.938088269582460    0.956714116335854    0.612677077615736  0.0000
  Ge     Ge        0.543007553782515    0.001875884694631    0.581294271452731  0.0000
  Ge     Ge        0.543082117539392    0.015435851633174    0.042049305625623  0.0000
  Ge     Ge        0.937824297667294    0.951714048577011    0.125668168038668  0.0000
  Ge     Ge        0.422831386841567    0.954482609596147    0.803377698227094  0.0000
  Ge     Ge        0.038573598928007    0.038139593962573    0.869898103275441  0.0000
  Ge     Ge        0.144109466521770    0.315496230267438    0.252474297503321  0.0000
  Ge     Ge        0.347875133824329    0.624720073995161    0.254512097004148  0.0000
  Ge     Ge        0.811319411343828    0.242124853747601    0.682109197530159  0.0000
  Ge     Ge        0.838909251756007    0.650702358278477    0.681918071913161  0.0000
  Ge     Ge        0.629974579469805    0.325752354306015    0.680634626118140  0.0000
  Ge     Ge        0.326303139186668    0.220523672596903    0.243431390791178  0.0000
  Ge     Ge        0.633754239142237    0.341029520989898    0.010815351045034  0.0000
  Ge     Ge        0.844364000749747    0.651674654432363    0.999146364486246  0.0000
  Ge     Ge        0.313539758980543    0.250617411455892    0.926392372376737  0.0000
  Ge     Ge        0.166264549578286    0.746231098995660    0.942529647980273  0.0000
  Ge     Ge        0.131286832717160    0.350453207216237    0.935915167264214  0.0000
  Ge     Ge        0.814191714132727    0.245611035461305    0.003937663884433  0.0000
  Si     Si        0.665023410437051    0.705163490603594    0.683951342304607  0.0000
  Si     Si        0.171952332634377    0.713734756400056    0.259322369900644  0.0000
  Si     Si        0.341928914183992    0.644788979366314    0.936424943269764  0.0000
  Si     Si        0.670245421731988    0.714006540602468    0.998083029455006  0.0000
  O1     O1        0.083309844384378    0.203173984114810    0.347934042858689  0.0000
  O1     O1        0.416321563399805    0.726148971753124    0.337774612727772  0.0000
  O1     O1        0.862096928036280    0.102294190009873    0.583343019472961  0.0000
  O3     O3        0.619674035629991    0.885239104914626    0.655801185723591  0.0000
  O1     O1        0.904659202677409    0.756648388366724    0.590631048081498  0.0000
  O1     O1        0.563149631201673    0.213378565982409    0.598252076825589  0.0000
  O3     O3        0.126479991575963    0.848645469639385    0.350677885380443  0.0000
  O1     O1        0.380990158051538    0.075264802533578    0.336273511862132  0.0000
  O1     O1        0.021573599925686    0.987857413568032    0.534023683450902  0.0000
  O1     O1        0.531573392959582    0.954726872891180    0.415962881629499  0.0000
  O1     O1        0.970574419839505    0.958200421217514    0.287123535673938  0.0000
  O1     O1        0.484125671562190    0.929340787746976    0.153356960830367  0.0000
  O1     O1        0.962079365582597    0.995138842737485    0.777903486627347  0.0000
  O1     O1        0.456753920100309    0.949082621656193    0.644339552735499  0.0000
  O1     O1        0.569767941854235    0.215733198403949    0.088918349387751  0.0000
  O1     O1        0.911192636660498    0.746978034993877    0.093161498752332  0.0000
  O1     O1        0.348687984178545    0.104716396954937    0.814347018627898  0.0000
  O1     O1        0.119372478529676    0.903322738496339    0.851591487881239  0.0000
  O3     O3        0.402626160672050    0.748421566331177    0.854462701651477  0.0000
  O1     O1        0.066863990062698    0.244362734972286    0.844705781091702  0.0000
  O3     O3        0.629650458184826    0.895658365912876    0.025732246382451  0.0000
  O1     O1        0.859458986584123    0.091173524729860    0.102839744881620  0.0000
  O1     O1        0.499769169201411    0.024001936017128    0.889463517624737  0.0000
  O1     O1        0.013528887790887    0.010921623237790    0.033824070586630  0.0000
  O3     O3        0.160747997018964    0.519243184009450    0.311032477899061  0.0000
  O1     O1        0.342020808726340    0.419187905274802    0.309596603063010  0.0000
  O1     O1        0.856202180679754    0.434217864272960    0.677884796000572  0.0000
  O3     O3        0.615648178844779    0.546862223463250    0.642353962662303  0.0000
  O1     O1        0.230051044042679    0.197688069279206    0.247356026039842  0.0000
  O3     O3        0.261537510579653    0.744237967922045    0.264207645519404  0.0000
  O1     O1        0.719585776491561    0.271010930675086    0.623989083465117  0.0000
  O3     O3        0.747356282195607    0.702176473275680    0.617649415728505  0.0000
  O1     O1        0.103311183367110    0.346102163230298    0.098988726994064  0.0000
  O3     O3        0.369356799612751    0.610718995777582    0.086700228143898  0.0000
  O1     O1        0.807065517119447    0.172084070601160    0.844647933738516  0.0000
  O2     O2        0.686188300493372    0.669564385366456    0.841407991867030  0.0000
  O1     O1        0.851121917560736    0.728172482230449    0.839157907254468  0.0000
  O1     O1        0.622017298305559    0.286216141549955    0.846837796610376  0.0000
  O3     O3        0.140872166173570    0.740795928815801    0.108567836877228  0.0000
  O1     O1        0.355165455138497    0.205469744881740    0.079569653502063  0.0000
  O3     O3        0.617853893871291    0.559305130680014    0.043777319536539  0.0000
  O1     O1        0.862704570202311    0.432680326249919    0.002508343688376  0.0000
  O3     O3        0.329784260337356    0.460216676840601    0.873005453619362  0.0000
  O1     O1        0.140583454353203    0.553748594678494    0.877025740799186  0.0000
  O1     O1        0.725138518789061    0.293195769038469    0.064153076834156  0.0000
  O3     O3        0.753723708117165    0.701673392251406    0.062948348599758  0.0000
  O1     O1        0.218100277471954    0.234783053339016    0.939064685947848  0.0000
  O3     O3        0.263336686990938    0.763140550126944    0.932804116630886  0.0000
