data_c00103.vasp
_audit_creation_method             Generated by GULP
_audit_author_name                 Salvador R. G. Balestra
_symmetry_space_group_name_H-M     'P 1             '
_symmetry_Int_Tables_number        1

loop_
_symmetry_equiv_pos_site_id
_symmetry_equiv_pos_as_xyz
_cell_length_a                       17.8100
_cell_length_b                        7.8577
_cell_length_c                       10.3606
_cell_angle_alpha                   91.5306
_cell_angle_beta                    90.1251
_cell_angle_gamma                   89.6267

loop_
_atom_site_label
_atom_site_type_symbol
_atom_site_fract_x
_atom_site_fract_y
_atom_site_fract_z
_atom_site_charge
  Ge     Ge        0.052090000000021    0.000000000000000    0.372269999999958  0.0000
  Ge     Ge        0.446963345572947    0.028889929489661    0.375868458090503  0.0000
  Ge     Ge        0.947270477712198    0.973353230857576    0.624399526027664  0.0000
  Ge     Ge        0.552490953780596    0.999934288748469    0.628728715971561  0.0000
  Ge     Ge        0.555350016485121    0.003351304407237    0.128389030227197  0.0000
  Ge     Ge        0.937655848106689    0.992783519306048    0.135376779139051  0.0000
  Ge     Ge        0.447304881237524    0.997905240093132    0.881253050003013  0.0000
  Ge     Ge        0.045773784980129    0.975752149503127    0.885504340471909  0.0000
  Ge     Ge        0.167488039120208    0.289742343635704    0.268694177960293  0.0000
  Ge     Ge        0.325481130859006    0.743423690802117    0.259538273463317  0.0000
  Ge     Ge        0.828122189915162    0.259355402448593    0.705886658017613  0.0000
  Ge     Ge        0.666838936617742    0.708986984627769    0.704873892153172  0.0000
  Ge     Ge        0.847702149092400    0.666880576239790    0.704693299491141  0.0000
  Ge     Ge        0.348609441092070    0.339850423823444    0.271145430898730  0.0000
  Ge     Ge        0.649468231301161    0.317385352029959    0.009443467345507  0.0000
  Ge     Ge        0.844771860838317    0.672620018126642    0.015684959142803  0.0000
  Ge     Ge        0.347202828986076    0.317078047852525    0.956318675598077  0.0000
  Ge     Ge        0.147759764875554    0.660698114191671    0.945070317619990  0.0000
  Ge     Ge        0.324553384769183    0.721962283114322    0.943285718438691  0.0000
  Ge     Ge        0.168347874317360    0.255983462322571    0.956952811498894  0.0000
  Si     Si        0.651815520499751    0.306832804409419    0.704461520445774  0.0000
  Si     Si        0.150045922824514    0.686633394372679    0.255486600168233  0.0000
  Si     Si        0.665292749095511    0.715150091516181    0.008897702532630  0.0000
  Si     Si        0.827601083902391    0.273711643174768    0.012715767341808  0.0000
  O1     O1        0.115332554241168    0.161677320604730    0.365142774088301  0.0000
  O1     O1        0.371872878750894    0.898339061025900    0.344149783835515  0.0000
  O1     O1        0.876227613555888    0.121737795829847    0.607233766859881  0.0000
  O1     O1        0.615496882804828    0.834534688424360    0.605374869223658  0.0000
  O1     O1        0.907970196980993    0.775500661625330    0.608618121628368  0.0000
  O3     O3        0.597042353656841    0.194477793310133    0.614281791062984  0.0000
  O3     O3        0.088475670130927    0.802934414539817    0.327280963364883  0.0000
  O1     O1        0.414325635919310    0.232805450605484    0.359186641925584  0.0000
  O1     O1        0.024722621200638    0.993383180033002    0.531710811334382  0.0000
  O1     O1        0.475408715175693    0.995133029589809    0.532121738606264  0.0000
  O1     O1        0.969204619605533    0.028680550106577    0.290093594386231  0.0000
  O1     O1        0.526337264208019    0.989939282500697    0.285503037196269  0.0000
  O1     O1        0.973981514028824    0.010475010458147    0.783277646815274  0.0000
  O1     O1        0.522926957365103    0.971689298057450    0.784571162736967  0.0000
  O1     O1        0.590034564031820    0.203802293683871    0.100607299626550  0.0000
  O1     O1        0.898329863655730    0.793458826586567    0.118016584578882  0.0000
  O1     O1        0.409243112420923    0.198073517908527    0.866370885504543  0.0000
  O1     O1        0.079597895516516    0.769903619004420    0.866373785866049  0.0000
  O1     O1        0.377756999811054    0.850490050021823    0.851141403294806  0.0000
  O1     O1        0.119694879602089    0.112678825615593    0.864548880277466  0.0000
  O3     O3        0.625230557510281    0.853894507687675    0.100876216537394  0.0000
  O3     O3        0.869134094553843    0.141473204373661    0.102329446016179  0.0000
  O1     O1        0.476452257051055    0.969812415620246    0.038251920245169  0.0000
  O1     O1        0.015695375232005    0.009878416978907    0.041764239537011  0.0000
  O3     O3        0.157368373395937    0.502417521274953    0.318552721757902  0.0000
  O1     O1        0.342738509052084    0.547977540275594    0.324484330803505  0.0000
  O1     O1        0.843490350635693    0.460410843703299    0.651786371893834  0.0000
  O3     O3        0.658229179165525    0.496741970816289    0.654637942394097  0.0000
  O1     O1        0.261679519330160    0.245288335924019    0.279454745553624  0.0000
  O3     O3        0.229423367542359    0.783770647952152    0.262434872264355  0.0000
  O3     O3        0.733245927387546    0.216231268417132    0.703652638906161  0.0000
  O1     O1        0.759729903439711    0.759492118351798    0.698594116944029  0.0000
  O1     O1        0.136353056018630    0.255776470718867    0.114023034363236  0.0000
  O1     O1        0.353394817234751    0.739256147939073    0.101724462503765  0.0000
  O3     O3        0.857028555325251    0.255765750089512    0.866189562155978  0.0000
  O3     O3        0.634893273624926    0.728189151677728    0.863015912487438  0.0000
  O1     O1        0.879942188627588    0.683256505039509    0.862142328447730  0.0000
  O3     O3        0.619798130397036    0.306554427835416    0.850250933945413  0.0000
  O3     O3        0.125599594364219    0.654125424104123    0.107975696595874  0.0000
  O1     O1        0.378384240958933    0.334881760316012    0.113248292840268  0.0000
  O3     O3        0.648521908208634    0.528084637856578    0.061473455908303  0.0000
  O3     O3        0.843743960093673    0.464685505802139    0.065506414014161  0.0000
  O1     O1        0.335499780155215    0.512613277621959    0.891905008344918  0.0000
  O1     O1        0.155821668174164    0.454870978991763    0.891741231170543  0.0000
  O3     O3        0.739275944154054    0.236153349804627    0.017224484619628  0.0000
  O3     O3        0.753802354437953    0.748616022515393    0.007924670446357  0.0000
  O1     O1        0.262507522718814    0.211796191222145    0.960594736985745  0.0000
  O1     O1        0.230868817359467    0.769129547824895    0.931295847583589  0.0000
