data_c00105.vasp
_audit_creation_method             Generated by GULP
_audit_author_name                 Salvador R. G. Balestra
_symmetry_space_group_name_H-M     'P 1             '
_symmetry_Int_Tables_number        1

loop_
_symmetry_equiv_pos_site_id
_symmetry_equiv_pos_as_xyz
_cell_length_a                       16.9275
_cell_length_b                        7.9403
_cell_length_c                       10.6118
_cell_angle_alpha                   96.4446
_cell_angle_beta                    89.9941
_cell_angle_gamma                   89.6705

loop_
_atom_site_label
_atom_site_type_symbol
_atom_site_fract_x
_atom_site_fract_y
_atom_site_fract_z
_atom_site_charge
  Ge     Ge        0.052090000000021    0.000000000000000    0.372269999999958  0.0000
  Ge     Ge        0.472762551249876    0.000742405619623    0.370906055829243  0.0000
  Ge     Ge        0.963560362239881    0.928753137963744    0.633265353593237  0.0000
  Ge     Ge        0.561973355995792    0.953851625914619    0.630906191388075  0.0000
  Ge     Ge        0.559955670484023    0.057705791107534    0.098666078635070  0.0000
  Ge     Ge        0.949614067049393    0.056798246712011    0.117131782911685  0.0000
  Ge     Ge        0.439577555265298    0.942462366116228    0.858011470041496  0.0000
  Ge     Ge        0.072510493816301    0.963941731547809    0.881115360367209  0.0000
  Ge     Ge        0.159235211020347    0.298601738570450    0.301282991007594  0.0000
  Ge     Ge        0.356731825039082    0.688940756282546    0.292273356155414  0.0000
  Ge     Ge        0.845355281240663    0.238929137443022    0.765453898347765  0.0000
  Ge     Ge        0.665398619778166    0.647936931522471    0.705693303568999  0.0000
  Ge     Ge        0.863379307616169    0.631936847366928    0.713508099831665  0.0000
  Ge     Ge        0.354256502706826    0.277905775526516    0.293353634547665  0.0000
  Ge     Ge        0.660059780788676    0.386564282232184    0.061901975288523  0.0000
  Ge     Ge        0.850652948778129    0.738223113420115    0.007763781501897  0.0000
  Ge     Ge        0.350719863089817    0.244403866662486    0.998143098238817  0.0000
  Ge     Ge        0.165562558104790    0.648974633274765    0.994717489524532  0.0000
  Ge     Ge        0.354225030624999    0.637597249139977    0.982812520244348  0.0000
  Ge     Ge        0.845636834857529    0.365621603438260    0.076362385974005  0.0000
  Si     Si        0.664475531148257    0.271535686799825    0.752805251456739  0.0000
  Si     Si        0.171936448923932    0.697010438736464    0.301760688225432  0.0000
  Si     Si        0.162228162771910    0.270342412335397    0.012156188680530  0.0000
  Si     Si        0.659715368444124    0.742333068407470    0.994263164224441  0.0000
  O1     O1        0.101690336909771    0.189938481110439    0.395353591148098  0.0000
  O1     O1        0.418402434835105    0.820209778215519    0.382606918083989  0.0000
  O1     O1        0.892453295071370    0.058562756101228    0.706909591850731  0.0000
  O1     O1        0.617690035001841    0.772093353540048    0.606839500717390  0.0000
  O1     O1        0.923676281259363    0.727985109305656    0.613106736615326  0.0000
  O3     O3        0.604438013778212    0.118994627377191    0.727984732414383  0.0000
  O3     O3        0.118504027100406    0.835108011503370    0.382476896479070  0.0000
  O1     O1        0.409880814831680    0.171407929778322    0.393189079802560  0.0000
  O1     O1        0.983126019706216    0.994456140147899    0.488184987513260  0.0000
  O1     O1        0.543883923800678    0.018466834896727    0.485815040401557  0.0000
  O1     O1        0.008503873206029    0.976309340705655    0.226217932952991  0.0000
  O1     O1        0.517905499596412    0.983033024064379    0.225600140946828  0.0000
  O1     O1        0.048538494189960    0.942576105652437    0.723963230907046  0.0000
  O1     O1        0.473783444656753    0.922817056642570    0.706756592017525  0.0000
  O1     O1        0.594537030860505    0.261564609317540    0.130573713941161  0.0000
  O1     O1        0.868749890667114    0.919871420148411    0.098722715084591  0.0000
  O1     O1        0.358722037314926    0.081484645764126    0.881210255400165  0.0000
  O1     O1        0.100477164003892    0.769712068172077    0.920960677718714  0.0000
  O1     O1        0.416456820775235    0.745413056211389    0.892953944665609  0.0000
  O3     O3        0.149400564386853    0.112194989564129    0.907946207232379  0.0000
  O3     O3        0.642749039830643    0.925236850713199    0.065064574106591  0.0000
  O1     O1        0.909072101752644    0.251295143944564    0.163296089597598  0.0000
  O1     O1        0.500785664262885    0.054145915379498    0.968505487724925  0.0000
  O1     O1        0.996206104266609    0.049701451245838    0.972777375551015  0.0000
  O3     O3        0.139129795904014    0.512294751067668    0.321708139663268  0.0000
  O1     O1        0.384119403550096    0.483611631036457    0.301452142185721  0.0000
  O1     O1        0.883456001656450    0.420242206966763    0.714078334024043  0.0000
  O3     O3        0.637289745225234    0.437031677798651    0.687509856402276  0.0000
  O1     O1        0.256464753793479    0.257109740280376    0.329879473754578  0.0000
  O3     O3        0.261239005658223    0.713068107452330    0.351283794702280  0.0000
  O3     O3        0.750659960107745    0.214594826516175    0.702212389583134  0.0000
  O1     O1        0.764687431095640    0.660689961778528    0.680878848077011  0.0000
  O3     O3        0.129183908301012    0.223620062658653    0.146950557798603  0.0000
  O1     O1        0.359104731933138    0.730570717445459    0.137022044006245  0.0000
  O1     O1        0.847243448057003    0.253091416987568    0.927238301352017  0.0000
  O3     O3        0.627324518021523    0.740618461293290    0.850983171986864  0.0000
  O1     O1        0.890516331369079    0.736233383582853    0.859175595373434  0.0000
  O3     O3        0.675084964262332    0.324731245525418    0.902662530748543  0.0000
  O3     O3        0.171588218758503    0.725177939155628    0.153605387522936  0.0000
  O1     O1        0.380091150514722    0.186219712150768    0.142786850427414  0.0000
  O3     O3        0.623302898008228    0.593843473532699    0.068981170860199  0.0000
  O1     O1        0.883356022307189    0.564522035805801    0.077073919755626  0.0000
  O1     O1        0.390019989729982    0.433180534836441    0.964437161074969  0.0000
  O3     O3        0.125522723885133    0.445420484921041    0.975125520632527  0.0000
  O1     O1        0.750434236883149    0.375173080020165    0.134484822719982  0.0000
  O3     O3        0.751832833979322    0.688643252922136    0.976549620389164  0.0000
  O3     O3        0.254386130578291    0.317440519598611    0.037780842037107  0.0000
  O1     O1        0.258194541469414    0.655755584299477    0.930231260972180  0.0000
