data_c00125.vasp
_audit_creation_method             Generated by GULP
_audit_author_name                 Salvador R. G. Balestra
_symmetry_space_group_name_H-M     'P 1             '
_symmetry_Int_Tables_number        1

loop_
_symmetry_equiv_pos_site_id
_symmetry_equiv_pos_as_xyz
_cell_length_a                       17.6899
_cell_length_b                        7.8305
_cell_length_c                       10.1827
_cell_angle_alpha                   91.1933
_cell_angle_beta                    90.3351
_cell_angle_gamma                   88.5600

loop_
_atom_site_label
_atom_site_type_symbol
_atom_site_fract_x
_atom_site_fract_y
_atom_site_fract_z
_atom_site_charge
  Ge     Ge        0.052090000000021    0.000000000000000    0.372269999999958  0.0000
  Ge     Ge        0.441150855080738    0.970258373452971    0.331859994890388  0.0000
  Ge     Ge        0.944401203373620    0.939919189985651    0.618136860560485  0.0000
  Ge     Ge        0.550111864836741    0.000892056184956    0.583408061458987  0.0000
  Ge     Ge        0.547586159025460    0.019291862258009    0.080110556861366  0.0000
  Ge     Ge        0.939638793460863    0.956270115120186    0.127884656089494  0.0000
  Ge     Ge        0.442591134799135    0.947716864659160    0.828653842273705  0.0000
  Ge     Ge        0.044871665495934    0.004374566773795    0.876696919181443  0.0000
  Ge     Ge        0.143014462691975    0.319792661041746    0.260452893427357  0.0000
  Ge     Ge        0.346618606849624    0.647000736684685    0.264601294524317  0.0000
  Ge     Ge        0.822767509592037    0.227353503143040    0.696852398438058  0.0000
  Ge     Ge        0.666782659495684    0.703957813868620    0.690239679799519  0.0000
  Ge     Ge        0.846485570634897    0.630396514762390    0.687602279977475  0.0000
  Ge     Ge        0.645619857287034    0.331169136184862    0.019048223020852  0.0000
  Ge     Ge        0.321067641073519    0.237233669029542    0.952073432788708  0.0000
  Ge     Ge        0.170350359273205    0.719526355978571    0.946764425338811  0.0000
  Ge     Ge        0.350106679308834    0.642107551561802    0.947940102324591  0.0000
  Ge     Ge        0.142186638150498    0.317402950776688    0.942713589680595  0.0000
  Ge     Ge        0.669769225680982    0.731134676100253    0.007226514776181  0.0000
  Ge     Ge        0.824155256425341    0.250996906952577    0.014871174786198  0.0000
  Si     Si        0.646630154754849    0.307443066334161    0.704789817751749  0.0000
  Si     Si        0.167533463033329    0.712823749494733    0.257526623743643  0.0000
  Si     Si        0.322164925970109    0.255149949644432    0.264589631730556  0.0000
  Si     Si        0.846079618478695    0.650474719441854    0.000272417255997  0.0000
  O1     O1        0.081916545193045    0.204541971091558    0.350894538589408  0.0000
  O1     O1        0.403794183167788    0.773269336602798    0.359280138813522  0.0000
  O1     O1        0.869122757502662    0.081858863589572    0.597874317809336  0.0000
  O1     O1        0.616199702945101    0.837775681950708    0.590266726514758  0.0000
  O1     O1        0.911153049096516    0.737045633149438    0.597798270919557  0.0000
  O3     O3        0.584814943731347    0.198106565505502    0.627976687781507  0.0000
  O3     O3        0.127280425999293    0.860765663327063    0.343935296930872  0.0000
  O3     O3        0.367593311706720    0.119507051548237    0.351754145916017  0.0000
  O1     O1        0.023829791779783    0.982450927563296    0.533415563637968  0.0000
  O1     O1        0.519416956855607    0.014088111126574    0.422521596252791  0.0000
  O1     O1        0.971073826186165    0.950234699650100    0.288028197980208  0.0000
  O1     O1        0.471320879793626    0.972392254895024    0.170520172252828  0.0000
  O1     O1        0.968776219745762    0.960301030927871    0.782734047846563  0.0000
  O1     O1        0.469323514401004    0.958298809268613    0.667295815935415  0.0000
  O1     O1        0.578920102316689    0.224434362248551    0.103057297942909  0.0000
  O3     O3        0.905728032600879    0.757123254498983    0.084411251443639  0.0000
  O1     O1        0.367181264186420    0.083666551961155    0.861503862492549  0.0000
  O1     O1        0.119143474242570    0.859406927490289    0.855263896358182  0.0000
  O1     O1        0.416084830661120    0.742075171098395    0.857438158952707  0.0000
  O1     O1        0.078654131972619    0.205142242795108    0.850412152229278  0.0000
  O1     O1        0.624436807763240    0.881956007695084    0.102043973027660  0.0000
  O1     O1        0.872566741822125    0.117841365965170    0.117379130479382  0.0000
  O1     O1        0.520780355174542    0.002518724721887    0.917400052439805  0.0000
  O1     O1        0.017980650350121    0.998676692077005    0.039096986258313  0.0000
  O3     O3        0.149234296649922    0.529426855473449    0.317553214554465  0.0000
  O3     O3        0.339680113671091    0.443452307013169    0.323368652300692  0.0000
  O1     O1        0.839792574334488    0.424841657030082    0.633271012886911  0.0000
  O3     O3        0.656724270563875    0.491141939276226    0.640275120300341  0.0000
  O3     O3        0.232883495836305    0.225509957237235    0.266293619179290  0.0000
  O3     O3        0.256925448575631    0.740134181726131    0.256266267288061  0.0000
  O3     O3        0.725872431868285    0.199805319031927    0.701201025136182  0.0000
  O1     O1        0.761535730050539    0.741387196381689    0.679646132923852  0.0000
  O1     O1        0.110701110360552    0.324525096799285    0.102958200374416  0.0000
  O1     O1        0.381327003109483    0.640105060385809    0.108084104375953  0.0000
  O1     O1        0.854774255215597    0.214776824321778    0.856797998225272  0.0000
  O1     O1        0.636191703443420    0.740196807830979    0.848066672811620  0.0000
  O3     O3        0.874365514642064    0.623389614063631    0.851712865465583  0.0000
  O3     O3        0.621506424239301    0.344471441137923    0.853662102529097  0.0000
  O3     O3        0.137843138480583    0.721589406913651    0.107955786943311  0.0000
  O3     O3        0.351581877614616    0.240167011969085    0.114741945211469  0.0000
  O1     O1        0.652420452397636    0.536106016899334    0.075221360815879  0.0000
  O3     O3        0.835212674554911    0.465039799937868    0.060633716772918  0.0000
  O1     O1        0.337851586044217    0.437017867953140    0.892017311783338  0.0000
  O1     O1        0.155351081422295    0.515658883725911    0.884472077035883  0.0000
  O1     O1        0.729447562771809    0.216280317387094    0.027500948180050  0.0000
  O3     O3        0.766552717849930    0.756871549280175    0.000177925392215  0.0000
  O1     O1        0.226536363513780    0.201759554614103    0.945935221582368  0.0000
  O1     O1        0.264944965359486    0.755111154285004    0.941386081196146  0.0000
