data_c00146.vasp
_audit_creation_method             Generated by GULP
_audit_author_name                 Salvador R. G. Balestra
_symmetry_space_group_name_H-M     'P 1             '
_symmetry_Int_Tables_number        1

loop_
_symmetry_equiv_pos_site_id
_symmetry_equiv_pos_as_xyz
_cell_length_a                       16.8567
_cell_length_b                        7.7817
_cell_length_c                       10.7322
_cell_angle_alpha                   92.4618
_cell_angle_beta                    89.8977
_cell_angle_gamma                   86.1916

loop_
_atom_site_label
_atom_site_type_symbol
_atom_site_fract_x
_atom_site_fract_y
_atom_site_fract_z
_atom_site_charge
  Ge     Ge        0.052090000000021    0.000000000000000    0.372269999999958  0.0000
  Ge     Ge        0.475629733488207    0.956832912869527    0.334777695164039  0.0000
  Ge     Ge        0.966568446314620    0.943215057397726    0.638532622082431  0.0000
  Ge     Ge        0.552406832613677    0.990576762273500    0.605424062373305  0.0000
  Ge     Ge        0.541501288415017    0.034067833701405    0.060901833347624  0.0000
  Ge     Ge        0.931333238851049    0.986981603607812    0.144618157525148  0.0000
  Ge     Ge        0.421424210524292    0.930443754337365    0.821350678313949  0.0000
  Ge     Ge        0.056384990887048    0.961870736633446    0.908655572444075  0.0000
  Ge     Ge        0.163361502455933    0.290974302787641    0.300540883936067  0.0000
  Ge     Ge        0.346366224536198    0.686384615087616    0.241095988983507  0.0000
  Ge     Ge        0.832561170932224    0.238176005358505    0.717856374537443  0.0000
  Ge     Ge        0.857903010739171    0.653178184352716    0.728417844067167  0.0000
  Ge     Ge        0.640156721709149    0.322620497128502    0.695821948624301  0.0000
  Ge     Ge        0.356776391741356    0.260513375921597    0.270681315592698  0.0000
  Ge     Ge        0.625854893856091    0.365099773704743    0.999701893871795  0.0000
  Ge     Ge        0.847616559472439    0.668015666926026    0.025549472638372  0.0000
  Ge     Ge        0.347988451308262    0.213543007862431    0.982402123618741  0.0000
  Ge     Ge        0.158520223125775    0.607825994214981    0.960698523792093  0.0000
  Ge     Ge        0.344649040279271    0.615593874921759    0.942691930277774  0.0000
  Ge     Ge        0.819279743558414    0.265386993734810    0.015291783351082  0.0000
  Si     Si        0.678515238203981    0.699173211037954    0.703271758557626  0.0000
  Si     Si        0.167230941710006    0.682393282003892    0.262288412576631  0.0000
  Si     Si        0.159593136942658    0.239222337333010    0.015376285933732  0.0000
  Si     Si        0.667482520368581    0.729346653119697    0.993153645919973  0.0000
  O1     O1        0.107255437721573    0.175174882201371    0.396110452962778  0.0000
  O1     O1        0.407316854783022    0.803512998530882    0.331021640328623  0.0000
  O1     O1        0.888011125050439    0.094065081621418    0.623157829124559  0.0000
  O3     O3        0.627277416551826    0.875273042286600    0.684061582432786  0.0000
  O1     O1        0.930998372934148    0.743746237798988    0.647864003500423  0.0000
  O1     O1        0.576909401483812    0.200365303586467    0.609849917897510  0.0000
  O3     O3        0.100695736711183    0.835243769844623    0.279067623676732  0.0000
  O1     O1        0.425146912628805    0.154249776993195    0.364053646127528  0.0000
  O1     O1        0.031916913746049    0.929998939489677    0.516092868062020  0.0000
  O1     O1        0.541446942091321    0.920286951012193    0.455050118806061  0.0000
  O1     O1        0.965957020023133    0.036820404909397    0.290460355506263  0.0000
  O1     O1        0.529162774334306    0.938262932779787    0.198103509011756  0.0000
  O1     O1        0.017704902680752    0.011504734739160    0.768559411453258  0.0000
  O1     O1        0.463930629450285    0.960824120967631    0.682405738399297  0.0000
  O1     O1        0.566610555190264    0.243823796192202    0.085256726539393  0.0000
  O1     O1        0.907883134960211    0.775752866157898    0.126607852599957  0.0000
  O1     O1        0.338969296653837    0.068821769664204    0.859371858081934  0.0000
  O1     O1        0.083692601902541    0.744951127412125    0.910487529971274  0.0000
  O1     O1        0.403891653615403    0.722296226559922    0.841102234641935  0.0000
  O3     O3        0.144309012054113    0.066246483549401    0.937105340999425  0.0000
  O3     O3        0.623534876860062    0.915355843501085    0.990726884883976  0.0000
  O1     O1        0.847410585625080    0.120507078650675    0.123326095375367  0.0000
  O1     O1        0.470025863068579    0.035003343485237    0.947957497827158  0.0000
  O1     O1        0.994295810414017    0.037094821058858    0.026640844944184  0.0000
  O3     O3        0.144846093550090    0.510973044931660    0.330451579344528  0.0000
  O1     O1        0.372413820949166    0.471959566127803    0.256856529047193  0.0000
  O1     O1        0.873601578161261    0.434863202537420    0.723565625381875  0.0000
  O3     O3        0.631164060966740    0.538102034847485    0.652481380406771  0.0000
  O1     O1        0.262254687000391    0.234508952598745    0.322687356319484  0.0000
  O3     O3        0.252782171487945    0.739286345130294    0.307338041492710  0.0000
  O1     O1        0.737078452404036    0.256749517029697    0.662996055734902  0.0000
  O3     O3        0.767407131061883    0.706490610199695    0.652874377539683  0.0000
  O3     O3        0.126906598623752    0.226290489864999    0.155859702665726  0.0000
  O1     O1        0.352616538510071    0.726636021089023    0.084846942586534  0.0000
  O1     O1        0.829647061979934    0.169844232371628    0.868008353806342  0.0000
  O2     O2        0.695845804490653    0.657533560913667    0.850914883651253  0.0000
  O1     O1        0.865212320339744    0.739151001957384    0.878112090713148  0.0000
  O1     O1        0.611793089153489    0.298236884683748    0.846914171599233  0.0000
  O3     O3        0.182738498674817    0.629521695949500    0.117043090438347  0.0000
  O1     O1        0.383881388119371    0.155547485856400    0.128063680148116  0.0000
  O3     O3        0.606499643766930    0.587244749982806    0.030259114372604  0.0000
  O1     O1        0.870211459981763    0.451844927276766    0.028699646577144  0.0000
  O1     O1        0.383909454158868    0.407519037013734    0.941309671807121  0.0000
  O3     O3        0.121637211755304    0.404256783539885    0.944445741088182  0.0000
  O1     O1        0.722737952920280    0.336271255751914    0.043356708941467  0.0000
  O3     O3        0.748692263269962    0.727278916280934    0.069288330879307  0.0000
  O3     O3        0.251577784582769    0.282833439210769    0.034333055439530  0.0000
  O1     O1        0.248105005709923    0.628610768258911    0.887949929697906  0.0000
