data_c00137.vasp
_audit_creation_method             Generated by GULP
_audit_author_name                 Salvador R. G. Balestra
_symmetry_space_group_name_H-M     'P 1             '
_symmetry_Int_Tables_number        1

loop_
_symmetry_equiv_pos_site_id
_symmetry_equiv_pos_as_xyz
_cell_length_a                       17.6409
_cell_length_b                        7.8435
_cell_length_c                       10.2346
_cell_angle_alpha                   87.9184
_cell_angle_beta                    90.1674
_cell_angle_gamma                   91.0884

loop_
_atom_site_label
_atom_site_type_symbol
_atom_site_fract_x
_atom_site_fract_y
_atom_site_fract_z
_atom_site_charge
  Ge     Ge        0.052090000000021    0.000000000000000    0.372269999999958  0.0000
  Ge     Ge        0.445747137591407    0.049031411801921    0.369661912291963  0.0000
  Ge     Ge        0.945209344591166    0.069300611968514    0.617131499261334  0.0000
  Ge     Ge        0.551458596206717    0.018739381166454    0.625548715336350  0.0000
  Ge     Ge        0.548282189954407    0.992447793691008    0.115605887960548  0.0000
  Ge     Ge        0.952443957586777    0.055559355263751    0.112817325900441  0.0000
  Ge     Ge        0.441175783789679    0.062160095874152    0.867511793293490  0.0000
  Ge     Ge        0.058831298952683    0.020982663743365    0.860179199633663  0.0000
  Ge     Ge        0.172352154202255    0.286749056335559    0.290927581541798  0.0000
  Ge     Ge        0.328188635227274    0.758625045169301    0.296791443150557  0.0000
  Ge     Ge        0.851657025585088    0.381350080471964    0.727849174960189  0.0000
  Ge     Ge        0.823827874346745    0.780992508968616    0.732087270520736  0.0000
  Ge     Ge        0.669554290661855    0.311752917051171    0.731294934751605  0.0000
  Ge     Ge        0.148390690654677    0.690892596550519    0.298671169650974  0.0000
  Ge     Ge        0.672005247334053    0.282279937519741    0.046830944753925  0.0000
  Ge     Ge        0.827164002348425    0.771074007405364    0.050060087387859  0.0000
  Ge     Ge        0.354316796063161    0.380585885859585    0.984027921809810  0.0000
  Ge     Ge        0.171731503517638    0.313606042950110    0.974989423314494  0.0000
  Ge     Ge        0.649659315380621    0.685426891412101    0.055346708423691  0.0000
  Ge     Ge        0.850879539779603    0.368042473510120    0.047086776750189  0.0000
  Si     Si        0.647015170690385    0.706154379387838    0.742431125431992  0.0000
  Si     Si        0.349568055520967    0.360448522021767    0.293068385799996  0.0000
  Si     Si        0.152189262158689    0.708359807591171    0.988936835012440  0.0000
  Si     Si        0.329494887556847    0.774000141359922    0.989208691447151  0.0000
  O1     O1        0.127039457991666    0.141227914391694    0.391984388508865  0.0000
  O1     O1        0.379267294965433    0.887409404496353    0.395767815372762  0.0000
  O1     O1        0.919157466502850    0.274425756279626    0.644106590675898  0.0000
  O3     O3        0.584375812304124    0.817964548339638    0.667834016161673  0.0000
  O1     O1        0.866537717412470    0.941211471013523    0.641090873628063  0.0000
  O1     O1        0.619159858224873    0.176415207490618    0.635204213855658  0.0000
  O1     O1        0.084639092670649    0.795787314756646    0.391371095985165  0.0000
  O3     O3        0.405103466331820    0.247762614064558    0.383927171269137  0.0000
  O1     O1        0.973350467230143    0.047487260131924    0.456959690508097  0.0000
  O1     O1        0.524002152197840    0.020413756632443    0.463426237437134  0.0000
  O1     O1        0.029043063216095    0.020276881151904    0.207721178104638  0.0000
  O1     O1        0.472594314474176    0.034623096014614    0.208570141674548  0.0000
  O1     O1        0.025144577034767    0.010456055530598    0.702761896705978  0.0000
  O1     O1        0.468657655807926    0.056563542923034    0.707182105061842  0.0000
  O1     O1        0.621704477540916    0.136410364849532    0.139673083249036  0.0000
  O1     O1        0.881278857435879    0.904494461960648    0.140477497524446  0.0000
  O1     O1        0.418243296509274    0.269597968692995    0.898622775526834  0.0000
  O3     O3        0.099961217722544    0.827576295396089    0.900030030193234  0.0000
  O3     O3        0.363470375709145    0.927413297295277    0.899796163785911  0.0000
  O1     O1        0.124614029041632    0.183292375676047    0.871010609999390  0.0000
  O1     O1        0.583003098039435    0.789786020039651    0.140406128520836  0.0000
  O1     O1        0.915501846329904    0.253805353923446    0.136071192760701  0.0000
  O1     O1        0.519642060381638    0.003431590511953    0.954195097978993  0.0000
  O1     O1        0.979820987421487    0.052937068853345    0.951046528705687  0.0000
  O1     O1        0.154552789269273    0.484116058583616    0.351498813888573  0.0000
  O3     O3        0.338457015867565    0.545912164650277    0.348675850068149  0.0000
  O1     O1        0.843140614367208    0.587506283354477    0.667321576465414  0.0000
  O3     O3        0.656364237590052    0.523217184897928    0.678766083909886  0.0000
  O3     O3        0.269135275784238    0.258916274294430    0.285328860266123  0.0000
  O1     O1        0.233859924515656    0.799555943995866    0.307968891459952  0.0000
  O1     O1        0.765071137974519    0.276495728482833    0.721223363923205  0.0000
  O3     O3        0.726741063398814    0.810478092245167    0.735553217381607  0.0000
  O1     O1        0.140454459288181    0.274037396201958    0.132011870590082  0.0000
  O3     O3        0.360428726821705    0.786671337947297    0.136667271567022  0.0000
  O1     O1        0.880031455488814    0.395442588379429    0.887295314887548  0.0000
  O3     O3        0.623893313434805    0.668893127317588    0.892120667474728  0.0000
  O1     O1        0.856622338280524    0.789124175976829    0.889720452753137  0.0000
  O1     O1        0.638564911614871    0.275703418635739    0.888420533880510  0.0000
  O3     O3        0.119977598051515    0.691873349871510    0.135342430761333  0.0000
  O3     O3        0.382082305263068    0.379123639269676    0.146372592636795  0.0000
  O1     O1        0.660830463881020    0.481221828123978    0.111933090083661  0.0000
  O1     O1        0.837987010045193    0.563384591671548    0.109294857893815  0.0000
  O3     O3        0.351918545357132    0.593586318941385    0.931490210242612  0.0000
  O3     O3        0.153960904823898    0.524040255426784    0.927756723036439  0.0000
  O1     O1        0.767490309217608    0.248431992474465    0.044055538602792  0.0000
  O1     O1        0.731963391848557    0.807475816420688    0.059818435197579  0.0000
  O1     O1        0.267283368521392    0.284467123078425    0.965636218745671  0.0000
  O2     O2        0.238075001871966    0.785562243717338    0.998002880153021  0.0000
