data_c00149.vasp
_audit_creation_method             Generated by GULP
_audit_author_name                 Salvador R. G. Balestra
_symmetry_space_group_name_H-M     'P 1             '
_symmetry_Int_Tables_number        1

loop_
_symmetry_equiv_pos_site_id
_symmetry_equiv_pos_as_xyz
_cell_length_a                       17.8242
_cell_length_b                        7.8509
_cell_length_c                       10.4057
_cell_angle_alpha                   89.5415
_cell_angle_beta                    89.5965
_cell_angle_gamma                   89.9946

loop_
_atom_site_label
_atom_site_type_symbol
_atom_site_fract_x
_atom_site_fract_y
_atom_site_fract_z
_atom_site_charge
  Ge     Ge        0.052090000000021    0.000000000000000    0.372269999999958  0.0000
  Ge     Ge        0.446493405955960    0.978046961551462    0.342330057064374  0.0000
  Ge     Ge        0.949845827365055    0.012182938529351    0.627163412795007  0.0000
  Ge     Ge        0.552503645621141    0.977352643058536    0.592595913253210  0.0000
  Ge     Ge        0.545712254966789    0.979075253782663    0.080914461271149  0.0000
  Ge     Ge        0.942585651619533    0.006299541964965    0.130606178982001  0.0000
  Ge     Ge        0.438624946635862    0.982481924898367    0.834371656655950  0.0000
  Ge     Ge        0.052926405746260    0.004536221886379    0.885503914530444  0.0000
  Ge     Ge        0.149881004936964    0.315337252812364    0.259510631567080  0.0000
  Ge     Ge        0.342057134781059    0.671896856222273    0.262116053397758  0.0000
  Ge     Ge        0.847897324517276    0.324463143498902    0.695350972324557  0.0000
  Ge     Ge        0.827634431880127    0.729071153619429    0.700489041699957  0.0000
  Ge     Ge        0.668182924097465    0.271364669961546    0.701361525878967  0.0000
  Ge     Ge        0.329357531738331    0.262760604382720    0.265278239463052  0.0000
  Ge     Ge        0.669359541633281    0.256917752940757    0.013451442601373  0.0000
  Ge     Ge        0.824295163848942    0.727764247144915    0.012294439326796  0.0000
  Ge     Ge        0.327740397729543    0.271386822143052    0.955184963725494  0.0000
  Ge     Ge        0.169449651670531    0.713863056198358    0.951881599598336  0.0000
  Ge     Ge        0.646380395198369    0.663668417228467    0.010189476136581  0.0000
  Ge     Ge        0.848189016091395    0.319738440530639    0.010788098511519  0.0000
  Si     Si        0.651687457683593    0.672108205634848    0.704612225753617  0.0000
  Si     Si        0.166794684121465    0.717760881850003    0.256714468935707  0.0000
  Si     Si        0.346082859759458    0.672091294883644    0.955107348274898  0.0000
  Si     Si        0.149834902753708    0.316906917649593    0.956497744678450  0.0000
  O1     O1        0.087042651262616    0.202053206020625    0.349361345742938  0.0000
  O1     O1        0.401674423900475    0.784745349460521    0.355414560512191  0.0000
  O1     O1        0.911437826980638    0.210949635992914    0.606310767835324  0.0000
  O3     O3        0.594345961099793    0.782567765851632    0.621032817344163  0.0000
  O1     O1        0.877402701916793    0.868964067571939    0.607839707653240  0.0000
  O1     O1        0.613763204317921    0.143370979220685    0.608212812819987  0.0000
  O3     O3        0.118598664820146    0.845882786163108    0.342356132755932  0.0000
  O1     O1        0.380403791974928    0.134928532966670    0.365370982503515  0.0000
  O1     O1        0.025728717925871    0.978107325887812    0.530904020196170  0.0000
  O1     O1        0.524356811566508    0.984905773576748    0.434426693833095  0.0000
  O1     O1        0.970940242168584    0.981074783214489    0.286836868717470  0.0000
  O1     O1        0.473533613741080    0.007554849317974    0.184087232352991  0.0000
  O1     O1        0.979429072985329    0.991213026614305    0.784228949520786  0.0000
  O1     O1        0.470208368139961    0.992026262616129    0.678461890960621  0.0000
  O1     O1        0.618954439097587    0.118574198999056    0.106178053787961  0.0000
  O1     O1        0.869740118086405    0.868135323341456    0.107953921182387  0.0000
  O1     O1        0.370093953517903    0.134879929304265    0.851667214318630  0.0000
  O1     O1        0.120616745748792    0.850758012727650    0.857878204614093  0.0000
  O3     O3        0.404230737601162    0.781259308119010    0.871458327590013  0.0000
  O3     O3        0.095428388094919    0.203257561173154    0.870893583397728  0.0000
  O1     O1        0.579943888536463    0.774374782222637    0.093007046840518  0.0000
  O1     O1        0.913067406590117    0.210920575756060    0.098945314225026  0.0000
  O1     O1        0.514834764896823    0.022445601690818    0.927485963841874  0.0000
  O1     O1        0.019810452528132    0.963374138532603    0.037548406586060  0.0000
  O3     O3        0.156996146024196    0.524577815424272    0.308753115276726  0.0000
  O1     O1        0.339447708694494    0.468609249717887    0.317528759864831  0.0000
  O1     O1        0.842043199510141    0.528700702112320    0.639655176549074  0.0000
  O3     O3        0.660737927871906    0.482870392435283    0.649810851201945  0.0000
  O1     O1        0.235289763619888    0.217091044243107    0.270728780043831  0.0000
  O3     O3        0.254109624587224    0.766684783494015    0.264336239068470  0.0000
  O1     O1        0.761829756819005    0.223666629878664    0.690455631492191  0.0000
  O3     O3        0.731822215575184    0.768141875722674    0.703031950002812  0.0000
  O3     O3        0.118472373405217    0.315136701927268    0.102288902273435  0.0000
  O3     O3        0.372209764550002    0.672458888400384    0.102902422115474  0.0000
  O1     O1        0.876723565781925    0.328599056341798    0.852996811295504  0.0000
  O3     O3        0.620374843766296    0.658274739811515    0.849384611920182  0.0000
  O1     O1        0.857517211610619    0.741003413735853    0.857006757950789  0.0000
  O1     O1        0.638795419392909    0.247971032239610    0.856810401302925  0.0000
  O3     O3        0.139728694769900    0.729451200324073    0.110144517844399  0.0000
  O1     O1        0.360323256783035    0.244645025632701    0.108250542225637  0.0000
  O1     O1        0.655531269288613    0.461967562188238    0.068443379620557  0.0000
  O1     O1        0.837185440018006    0.522119622168619    0.067454358794103  0.0000
  O3     O3        0.343171279385594    0.479886465101273    0.904647588225381  0.0000
  O3     O3        0.153745926363914    0.507215341526725    0.900710204356781  0.0000
  O1     O1        0.763391066323791    0.213904473113779    0.017071612922309  0.0000
  O1     O1        0.730155227180843    0.771204397784806    0.016186314793452  0.0000
  O3     O3        0.232358622185896    0.233903177717903    0.959734382438028  0.0000
  O3     O3        0.264073344719321    0.757593866879771    0.944490837433556  0.0000
