data_c00220.vasp
_audit_creation_method             Generated by GULP
_audit_author_name                 Salvador R. G. Balestra
_symmetry_space_group_name_H-M     'P 1             '
_symmetry_Int_Tables_number        1

loop_
_symmetry_equiv_pos_site_id
_symmetry_equiv_pos_as_xyz
_cell_length_a                       17.6424
_cell_length_b                        7.8567
_cell_length_c                       10.1594
_cell_angle_alpha                   87.8213
_cell_angle_beta                    91.0153
_cell_angle_gamma                   88.5333

loop_
_atom_site_label
_atom_site_type_symbol
_atom_site_fract_x
_atom_site_fract_y
_atom_site_fract_z
_atom_site_charge
  Ge     Ge        0.052090000000021    0.000000000000000    0.372269999999958  0.0000
  Ge     Ge        0.447235387923195    0.954756684688987    0.368551729546498  0.0000
  Ge     Ge        0.938541183381233    0.980280711946758    0.612138828947272  0.0000
  Ge     Ge        0.551935121557626    0.021582308293246    0.621274260641611  0.0000
  Ge     Ge        0.551724257482882    0.001527956628082    0.116016545635361  0.0000
  Ge     Ge        0.954768434714230    0.942969911767218    0.109238322166298  0.0000
  Ge     Ge        0.442661921798429    0.963557496278974    0.864998799396401  0.0000
  Ge     Ge        0.055570100125644    0.020491775381518    0.854056819180866  0.0000
  Ge     Ge        0.151240196501483    0.314200258996145    0.298892872258597  0.0000
  Ge     Ge        0.352207352193883    0.641231606031249    0.296859805543708  0.0000
  Ge     Ge        0.825747520197109    0.275217819391053    0.719111677550858  0.0000
  Ge     Ge        0.641595413229240    0.341205760537931    0.728049616338640  0.0000
  Ge     Ge        0.171509995969140    0.716198523386957    0.297108746349723  0.0000
  Ge     Ge        0.650044790348587    0.314266583995825    0.046154032053769  0.0000
  Ge     Ge        0.852983172018092    0.637265462719977    0.049968512499272  0.0000
  Ge     Ge        0.327315501728889    0.256920356374853    0.983807320981277  0.0000
  Ge     Ge        0.173828236640929    0.729888344546167    0.978137281311974  0.0000
  Ge     Ge        0.146082295960162    0.328944889519920    0.977318552308026  0.0000
  Ge     Ge        0.675228036561275    0.715579088808535    0.052250499520774  0.0000
  Ge     Ge        0.830139833876308    0.233773306829381    0.036029124661807  0.0000
  Si     Si        0.668308643055657    0.730829656101192    0.739108494397293  0.0000
  Si     Si        0.844999103076806    0.665383686629980    0.735684553298527  0.0000
  Si     Si        0.328779266574169    0.244272721263053    0.295819457941465  0.0000
  Si     Si        0.352022950645743    0.653805042687887    0.987410675231104  0.0000
  O1     O1        0.091215124287320    0.195173843529736    0.392955663676312  0.0000
  O1     O1        0.412768910125844    0.753121146736414    0.392436812038559  0.0000
  O1     O1        0.872562228193279    0.142209559504597    0.616328597423400  0.0000
  O3     O3        0.630133941237045    0.890160987963737    0.659923808271575  0.0000
  O3     O3        0.899633685851567    0.787870602180245    0.655861729282713  0.0000
  O1     O1        0.577981363896509    0.228548378972397    0.638574092276427  0.0000
  O1     O1        0.122757688017489    0.846919956355327    0.398104977474900  0.0000
  O3     O3        0.375698377510386    0.108054976952933    0.388015797460694  0.0000
  O1     O1        0.969946376317286    0.966440634041033    0.452577641056049  0.0000
  O1     O1        0.526398908121778    0.993186516881044    0.459161799215726  0.0000
  O1     O1        0.029908692055810    0.987237808113754    0.205634207825025  0.0000
  O1     O1        0.473866884437073    0.964862015542087    0.205844488257436  0.0000
  O1     O1        0.022151315706674    0.017550320844056    0.694299597546721  0.0000
  O1     O1        0.471167355999431    0.970418468593503    0.703802790563906  0.0000
  O1     O1        0.590080634574483    0.197031345901504    0.141146358216618  0.0000
  O1     O1        0.921521938525125    0.739505131760916    0.134217954500452  0.0000
  O1     O1        0.374906630341505    0.120368365135578    0.887140067597834  0.0000
  O1     O1        0.134410164676896    0.888627734319260    0.878330309981540  0.0000
  O3     O3        0.409042039044042    0.761678274881378    0.899088026786007  0.0000
  O1     O1        0.079727513604267    0.224922034399925    0.888778064846480  0.0000
  O1     O1        0.622665703260035    0.848503767581710    0.143937686492042  0.0000
  O1     O1        0.880451510731088    0.085973113614092    0.129760483412702  0.0000
  O1     O1        0.523564482769211    0.999683311300489    0.952620512018641  0.0000
  O1     O1        0.981641466788957    0.953769558027699    0.947121490324215  0.0000
  O1     O1        0.158714261274408    0.511386743094706    0.358926482182039  0.0000
  O3     O3        0.342061072289373    0.432315989115092    0.350348204520762  0.0000
  O3     O3        0.842059322477902    0.484682026464200    0.668164713790273  0.0000
  O3     O3        0.645359199309762    0.554500774579439    0.674979713513989  0.0000
  O3     O3        0.239640503146061    0.209546813742641    0.295727458996633  0.0000
  O1     O1        0.266901545165540    0.750373733298733    0.299205136383543  0.0000
  O1     O1        0.730077849740438    0.247527439859644    0.714252136183225  0.0000
  O2     O2        0.759771163108570    0.748427260599084    0.739863337254461  0.0000
  O1     O1        0.118691155516299    0.333881347896595    0.138646943719080  0.0000
  O3     O3        0.384401232589630    0.637677136555493    0.136545678040703  0.0000
  O1     O1        0.860938456436050    0.230529961635368    0.875490144095215  0.0000
  O3     O3        0.642303958601681    0.728961346930736    0.889702619545169  0.0000
  O3     O3        0.875300748200062    0.633279214201561    0.883862801952648  0.0000
  O1     O1        0.613502439216884    0.336305825323247    0.887989335237711  0.0000
  O1     O1        0.139535760575279    0.738380105107973    0.135358388562711  0.0000
  O3     O3        0.358226077638387    0.233054467730219    0.146523116667559  0.0000
  O1     O1        0.664433316761640    0.507999840994348    0.109737689226908  0.0000
  O1     O1        0.844296904677866    0.431081423705461    0.102057143399105  0.0000
  O3     O3        0.342240812786951    0.467117204220056    0.931725773793960  0.0000
  O1     O1        0.153642815256706    0.534584559960465    0.917222267868274  0.0000
  O1     O1        0.734786189447797    0.200846924820867    0.034333801256689  0.0000
  O1     O1        0.769726661678582    0.754780473980023    0.063065661608865  0.0000
  O1     O1        0.232473491770763    0.222302469598173    0.971232781672942  0.0000
  O3     O3        0.270936294115582    0.752936144340249    0.988187657335681  0.0000
