data_c00285.vasp
_audit_creation_method             Generated by GULP
_audit_author_name                 Salvador R. G. Balestra
_symmetry_space_group_name_H-M     'P 1             '
_symmetry_Int_Tables_number        1

loop_
_symmetry_equiv_pos_site_id
_symmetry_equiv_pos_as_xyz
_cell_length_a                       17.5449
_cell_length_b                        7.8288
_cell_length_c                       10.3263
_cell_angle_alpha                   89.6121
_cell_angle_beta                    90.7601
_cell_angle_gamma                   88.0247

loop_
_atom_site_label
_atom_site_type_symbol
_atom_site_fract_x
_atom_site_fract_y
_atom_site_fract_z
_atom_site_charge
  Ge     Ge        0.052090000000021    0.000000000000000    0.372269999999958  0.0000
  Ge     Ge        0.444354959317616    0.945152196672549    0.351034149229355  0.0000
  Ge     Ge        0.946316601900537    0.951711633458102    0.622150500864770  0.0000
  Ge     Ge        0.540779904171966    0.005938125751713    0.611796989064700  0.0000
  Ge     Ge        0.552161425776060    0.006091233274945    0.112563927981467  0.0000
  Ge     Ge        0.940086804934340    0.948116605083684    0.124812821893361  0.0000
  Ge     Ge        0.438810097533855    0.951728096217648    0.869418445301542  0.0000
  Ge     Ge        0.146509491193233    0.311987256944949    0.251761535830353  0.0000
  Ge     Ge        0.352085257066410    0.630081313314829    0.240072035663632  0.0000
  Ge     Ge        0.820538261145796    0.235186561797148    0.693609085525988  0.0000
  Ge     Ge        0.668117143863561    0.722599083574695    0.686506708198519  0.0000
  Ge     Ge        0.848531744948622    0.637687334898153    0.689137241448049  0.0000
  Ge     Ge        0.638497069791737    0.319437781912535    0.686054927445583  0.0000
  Ge     Ge        0.171008438918455    0.711129994129657    0.260991159090327  0.0000
  Ge     Ge        0.637440223998175    0.327701905252989    0.997839858775021  0.0000
  Ge     Ge        0.847391552082174    0.636770545428777    0.004728803150828  0.0000
  Ge     Ge        0.318807862880411    0.253415784934220    0.928746126535570  0.0000
  Ge     Ge        0.158880959530827    0.724353022639627    0.948136089639320  0.0000
  Ge     Ge        0.137364532253891    0.324716367367420    0.934111080788139  0.0000
  Ge     Ge        0.820054708244509    0.237305411005550    0.007789437677644  0.0000
  Si     Si        0.040412373452351    0.017250302930675    0.878433015509235  0.0000
  Si     Si        0.324685607590277    0.234777889103527    0.236734088884617  0.0000
  Si     Si        0.338186096788414    0.648368342799378    0.935083038095526  0.0000
  Si     Si        0.668549412962943    0.721090892322360    0.995336928082872  0.0000
  O1     O1        0.081551824427828    0.201031999445925    0.336249046428308  0.0000
  O1     O1        0.419984142563821    0.737500035823452    0.323080255468833  0.0000
  O1     O1        0.870407666716478    0.093770907027539    0.598943807809455  0.0000
  O1     O1        0.616909079984643    0.863593747436754    0.591386453560786  0.0000
  O1     O1        0.914675355118746    0.748376774696929    0.604103399114721  0.0000
  O1     O1        0.573833690036354    0.208693255146148    0.596151273472628  0.0000
  O1     O1        0.127628694911211    0.858457633987939    0.358811940161224  0.0000
  O3     O3        0.369396691604920    0.086587546456268    0.315604818190135  0.0000
  O1     O1        0.022591299668474    0.995372282472299    0.530693289989664  0.0000
  O1     O1        0.465084358054690    0.968131463797195    0.513151585895554  0.0000
  O1     O1        0.973737715173209    0.948440998560204    0.281235964526662  0.0000
  O1     O1        0.526820203613030    0.988620183437378    0.272052341439892  0.0000
  O3     O3        0.971475479759606    0.973306254819058    0.785721582173994  0.0000
  O1     O1        0.513782549142040    0.969650422585322    0.769875429640240  0.0000
  O1     O1        0.574954167726452    0.215487631945742    0.087918021184491  0.0000
  O1     O1        0.912505109577405    0.744492470264962    0.093140816471247  0.0000
  O1     O1        0.373562827592329    0.118359698669586    0.838783213743274  0.0000
  O3     O3        0.111588535132952    0.882931452392781    0.860343730647897  0.0000
  O3     O3        0.392139259446244    0.760967700964716    0.848026677964532  0.0000
  O3     O3        0.069906215496744    0.207279267767867    0.853419896354704  0.0000
  O3     O3        0.628502266203291    0.868612311433506    0.078989135312492  0.0000
  O1     O1        0.862707721383756    0.085633423992293    0.106624653739973  0.0000
  O1     O1        0.472128728655097    0.955445545747551    0.026332303346490  0.0000
  O3     O3        0.014123689835318    0.007951581539754    0.027529547219942  0.0000
  O1     O1        0.155938735027733    0.508725675684737    0.319206760360927  0.0000
  O3     O3        0.343239942860572    0.421244764912112    0.293511804446568  0.0000
  O1     O1        0.835122763315550    0.437673651380653    0.631852910347745  0.0000
  O1     O1        0.652378586200374    0.519793504395189    0.628353410651288  0.0000
  O3     O3        0.234773852044482    0.204459576264982    0.246062433853453  0.0000
  O1     O1        0.267008565961912    0.740140444895614    0.259112952402149  0.0000
  O1     O1        0.724294256192285    0.203901591808342    0.690614383744024  0.0000
  O1     O1        0.763639028447572    0.756729809955874    0.681833196998321  0.0000
  O1     O1        0.115709573278044    0.341675083241745    0.095104217232709  0.0000
  O3     O3        0.375171088487525    0.624021121964844    0.078039837264863  0.0000
  O1     O1        0.852524668291126    0.220932914317007    0.851935830035669  0.0000
  O3     O3        0.639153185400198    0.729999777050677    0.847159986887654  0.0000
  O1     O1        0.877716910168711    0.620133334422560    0.848309593645696  0.0000
  O1     O1        0.604264102602765    0.332575167901037    0.841344858279183  0.0000
  O1     O1        0.131993418880261    0.733353258594529    0.107374041436243  0.0000
  O3     O3        0.350157288243840    0.229541428670254    0.087924143282451  0.0000
  O3     O3        0.649221174007282    0.534421063694224    0.052278286918231  0.0000
  O1     O1        0.839474998072909    0.436440549000132    0.067859803139712  0.0000
  O3     O3        0.327567747761107    0.462995066961706    0.874699293307766  0.0000
  O1     O1        0.139096413779576    0.530824928039082    0.878554823488596  0.0000
  O1     O1        0.723440766039030    0.217023600084331    0.004047635547867  0.0000
  O3     O3        0.759051713965997    0.744657501656165    0.000465528350907  0.0000
  O1     O1        0.223714111633107    0.216516158201689    0.917986981471349  0.0000
  O3     O3        0.256554346787030    0.748001431082453    0.948692153424273  0.0000
