data_c00263.vasp
_audit_creation_method             Generated by GULP
_audit_author_name                 Salvador R. G. Balestra
_symmetry_space_group_name_H-M     'P 1             '
_symmetry_Int_Tables_number        1

loop_
_symmetry_equiv_pos_site_id
_symmetry_equiv_pos_as_xyz
_cell_length_a                       17.6560
_cell_length_b                        7.7977
_cell_length_c                       10.3133
_cell_angle_alpha                   90.0060
_cell_angle_beta                    90.5327
_cell_angle_gamma                   90.9709

loop_
_atom_site_label
_atom_site_type_symbol
_atom_site_fract_x
_atom_site_fract_y
_atom_site_fract_z
_atom_site_charge
  Ge     Ge        0.052090000000021    0.000000000000000    0.372269999999958  0.0000
  Ge     Ge        0.453228303695700    0.045035572228494    0.362487698335723  0.0000
  Ge     Ge        0.950198516381140    0.056820234964521    0.627298837800812  0.0000
  Ge     Ge        0.551457271773005    0.002031039958675    0.623745358135112  0.0000
  Ge     Ge        0.554506862289863    0.990671831455129    0.104586571664894  0.0000
  Ge     Ge        0.952224437237905    0.053088856113299    0.108983217001097  0.0000
  Ge     Ge        0.441263682829743    0.045913836363221    0.861298134869363  0.0000
  Ge     Ge        0.175981868872549    0.278364618919974    0.297526115784242  0.0000
  Ge     Ge        0.327669737792256    0.767272028004613    0.286862025644790  0.0000
  Ge     Ge        0.853998712737900    0.368121718187161    0.737581564048028  0.0000
  Ge     Ge        0.648273471783276    0.689775055751396    0.740327279766305  0.0000
  Ge     Ge        0.826265261552061    0.773669828073418    0.734949941922467  0.0000
  Ge     Ge        0.674986293404156    0.285807398172699    0.731416835523554  0.0000
  Ge     Ge        0.148204325752744    0.683705005000485    0.293389395845880  0.0000
  Ge     Ge        0.353808827821517    0.360502206385505    0.293246070391453  0.0000
  Ge     Ge        0.674527958344528    0.288312466857111    0.045327143912696  0.0000
  Ge     Ge        0.830811422461802    0.757166488767593    0.050321519433318  0.0000
  Ge     Ge        0.144071971057914    0.678430712482234    0.978774964482393  0.0000
  Ge     Ge        0.325900490639096    0.750930224690430    0.973958506317677  0.0000
  Ge     Ge        0.171539006075559    0.275114921949442    0.980741501424028  0.0000
  Si     Si        0.055893614177065    0.991059316653090    0.865558646911378  0.0000
  Si     Si        0.348405358952746    0.352575227016011    0.983019958030143  0.0000
  Si     Si        0.655652342527148    0.680433121131280    0.053164379523841  0.0000
  Si     Si        0.850926670745481    0.363034114901343    0.047656934678967  0.0000
  O1     O1        0.126570232388163    0.142290222381686    0.395863931199739  0.0000
  O1     O1        0.376899866476890    0.907661463476415    0.383615122450196  0.0000
  O1     O1        0.924805446303101    0.263194661464467    0.660425501638139  0.0000
  O1     O1        0.575035985467787    0.798221915522443    0.672359209192030  0.0000
  O1     O1        0.873954274984134    0.922010035475045    0.644261800184952  0.0000
  O1     O1        0.627402655143813    0.139141988386904    0.637241293176287  0.0000
  O1     O1        0.084962988851770    0.794855422443899    0.385082148852033  0.0000
  O1     O1        0.422799765664256    0.252954731846116    0.375428719175615  0.0000
  O1     O1        0.977091209010953    0.041616453805273    0.467842610994931  0.0000
  O1     O1        0.527299187250524    0.999611874599012    0.461234644597979  0.0000
  O1     O1        0.026115833249799    0.030787882961045    0.211457600136910  0.0000
  O1     O1        0.479811915466684    0.015743670115758    0.203240695328464  0.0000
  O3     O3        0.029692100725756    0.000241207190305    0.716433871193694  0.0000
  O1     O1        0.471648801261085    0.064212417938661    0.703856475703514  0.0000
  O1     O1        0.623734644920659    0.144752706710746    0.134980597297724  0.0000
  O1     O1        0.884650179714179    0.896777838025158    0.140023980333655  0.0000
  O3     O3        0.409881060824913    0.246179186011281    0.906044477771537  0.0000
  O3     O3        0.076991097906236    0.795496028299327    0.895934430816486  0.0000
  O1     O1        0.372456944349670    0.889054120882738    0.872200387794526  0.0000
  O3     O3        0.128614943992997    0.114068795449693    0.891104067787983  0.0000
  O3     O3        0.593801577422878    0.789088683110180    0.126743017188756  0.0000
  O3     O3        0.911199222962115    0.252780970665568    0.126150858763402  0.0000
  O1     O1        0.521670515691169    0.996817856284784    0.947343416396137  0.0000
  O3     O3        0.984718890769964    0.048459900028609    0.950589516531280  0.0000
  O1     O1        0.163780775648340    0.484857283141426    0.354342126579136  0.0000
  O1     O1        0.342367798029134    0.563423809523678    0.348254951890049  0.0000
  O1     O1        0.842359586825330    0.570059934010557    0.676943088316239  0.0000
  O1     O1        0.657981220622961    0.489736086812650    0.674590735863762  0.0000
  O1     O1        0.271180858547565    0.240367458400635    0.302576258419884  0.0000
  O1     O1        0.232071162345681    0.801352181887452    0.286520707855140  0.0000
  O1     O1        0.770728834116072    0.251907026660029    0.724592425049213  0.0000
  O1     O1        0.730623347744755    0.808764040172212    0.724748916894201  0.0000
  O1     O1        0.143904358080587    0.264952663928262    0.139009960567154  0.0000
  O1     O1        0.359079930152368    0.781753778144722    0.128878714253610  0.0000
  O3     O3        0.876500215817078    0.393977942455691    0.899971465477629  0.0000
  O3     O3        0.633752171441594    0.649088470190204    0.902869468956701  0.0000
  O1     O1        0.857379224575271    0.790337552284582    0.892756834054171  0.0000
  O1     O1        0.643836389446935    0.261675392013267    0.888143077269567  0.0000
  O1     O1        0.115258207625685    0.662889210905765    0.136496495158066  0.0000
  O3     O3        0.376404392348632    0.377853559298022    0.130195982702456  0.0000
  O3     O3        0.662266701288810    0.491214429313430    0.111847520068935  0.0000
  O3     O3        0.843933454654435    0.550619508332778    0.108985653809163  0.0000
  O3     O3        0.338121072929545    0.540378995022523    0.922301667208704  0.0000
  O1     O1        0.149926887438376    0.473489844740433    0.918651850380481  0.0000
  O3     O3        0.771437600817893    0.257069971270805    0.046646788339353  0.0000
  O3     O3        0.734340987030685    0.789397207147139    0.059474215464955  0.0000
  O3     O3        0.268736866866219    0.247908940108721    0.978116601964822  0.0000
  O1     O1        0.230148662758099    0.783180684710037    0.971011236349673  0.0000
