data_c00227.vasp
_audit_creation_method             Generated by GULP
_audit_author_name                 Salvador R. G. Balestra
_symmetry_space_group_name_H-M     'P 1             '
_symmetry_Int_Tables_number        1

loop_
_symmetry_equiv_pos_site_id
_symmetry_equiv_pos_as_xyz
_cell_length_a                       17.6484
_cell_length_b                        7.8556
_cell_length_c                       10.1702
_cell_angle_alpha                   89.7448
_cell_angle_beta                    89.8803
_cell_angle_gamma                   88.5956

loop_
_atom_site_label
_atom_site_type_symbol
_atom_site_fract_x
_atom_site_fract_y
_atom_site_fract_z
_atom_site_charge
  Ge     Ge        0.052090000000021    0.000000000000000    0.372269999999958  0.0000
  Ge     Ge        0.447135388136731    0.955402727025600    0.378876297718688  0.0000
  Ge     Ge        0.942632829153572    0.977308759632286    0.623288231185567  0.0000
  Ge     Ge        0.555686826819002    0.019362106647379    0.622098158517236  0.0000
  Ge     Ge        0.544284488419716    0.023069736886920    0.118441516310357  0.0000
  Ge     Ge        0.947303113304803    0.963615284498311    0.117588228049689  0.0000
  Ge     Ge        0.441710966015074    0.960254451141918    0.863248299160679  0.0000
  Ge     Ge        0.054558795368767    0.016025068987673    0.867671451252459  0.0000
  Ge     Ge        0.146558881328535    0.317314230489825    0.300328996026017  0.0000
  Ge     Ge        0.347496068787860    0.644659332879369    0.305637482376894  0.0000
  Ge     Ge        0.827302907746888    0.276399433785597    0.728956342126000  0.0000
  Ge     Ge        0.643455761958736    0.342591364584647    0.732666648684246  0.0000
  Ge     Ge        0.327183592910097    0.243201566085344    0.303903075690724  0.0000
  Ge     Ge        0.644420229651484    0.331713973552560    0.051236808985244  0.0000
  Ge     Ge        0.847069840688611    0.654225768174245    0.055877433911750  0.0000
  Ge     Ge        0.324039604358918    0.244464976725741    0.985491750266103  0.0000
  Ge     Ge        0.170501553891292    0.716795560292913    0.987626437843429  0.0000
  Ge     Ge        0.351558329582763    0.645280370502411    0.984684697575491  0.0000
  Ge     Ge        0.669568854962196    0.735139760293533    0.052379479743345  0.0000
  Ge     Ge        0.824299075416064    0.250755025075231    0.046541317390494  0.0000
  Si     Si        0.669450616589046    0.733561002407068    0.740863734943376  0.0000
  Si     Si        0.846154251376017    0.667292212510500    0.742823252789554  0.0000
  Si     Si        0.170120478550472    0.714927397603185    0.299038103330849  0.0000
  Si     Si        0.145949355609597    0.319200834781023    0.991370706975349  0.0000
  O1     O1        0.086809577117312    0.200831209909526    0.395819473239839  0.0000
  O1     O1        0.408320524058754    0.759177451821482    0.399605670082499  0.0000
  O1     O1        0.876328414418484    0.139072269196690    0.628391866991690  0.0000
  O3     O3        0.632791039955566    0.887207670821909    0.658059377222765  0.0000
  O3     O3        0.902586472627155    0.786305771124573    0.665319129646572  0.0000
  O1     O1        0.581466633495576    0.226466017675074    0.641370507471426  0.0000
  O3     O3        0.123955137033957    0.846021532335927    0.390637656181529  0.0000
  O1     O1        0.376775523164859    0.106908730814360    0.404840626164587  0.0000
  O1     O1        0.973888964006483    0.958472226980009    0.462738833857576  0.0000
  O1     O1        0.529421519456529    0.987919023341924    0.460899647081892  0.0000
  O1     O1        0.024628146822098    0.999411221719648    0.209394506351375  0.0000
  O1     O1        0.468870616696405    0.976718831238903    0.213144531997323  0.0000
  O1     O1        0.024576736568095    0.017275193757202    0.706842296299531  0.0000
  O1     O1        0.473622003883376    0.970754631995386    0.703662803155492  0.0000
  O1     O1        0.581500293758786    0.220842838983486    0.144527888176661  0.0000
  O1     O1        0.913556082185889    0.761432735382081    0.141026040874296  0.0000
  O1     O1        0.363116331929760    0.090702800934191    0.887179117327804  0.0000
  O1     O1        0.122288988848373    0.857772329391209    0.889956079371150  0.0000
  O1     O1        0.417961301646190    0.754077788583342    0.898005050547774  0.0000
  O3     O3        0.088960400167351    0.215930636814798    0.901761645406115  0.0000
  O1     O1        0.616116062045476    0.873025307799944    0.142391390643547  0.0000
  O1     O1        0.873942074165261    0.109013704963106    0.141982466870902  0.0000
  O1     O1        0.516304096599975    0.024018732498139    0.956220464438796  0.0000
  O1     O1        0.974319045006804    0.977903191223987    0.954978922547191  0.0000
  O3     O3        0.157250752970016    0.523639909168801    0.352893230887066  0.0000
  O1     O1        0.340443219447443    0.444482781000654    0.366202509852370  0.0000
  O3     O3        0.843827643587578    0.483244607700543    0.676157266772626  0.0000
  O3     O3        0.648026444927520    0.553071016592749    0.678559126631701  0.0000
  O1     O1        0.232000378794520    0.208466272319044    0.304408741882643  0.0000
  O3     O3        0.259326873198970    0.749788552026779    0.300655438120761  0.0000
  O1     O1        0.731643443311589    0.247108343935017    0.721326012202214  0.0000
  O2     O2        0.760790229547748    0.750846733354230    0.745371990737806  0.0000
  O3     O3        0.113942532736932    0.327716416300550    0.139545418810244  0.0000
  O1     O1        0.379361834173192    0.632104916667672    0.146283146709723  0.0000
  O1     O1        0.857604713260607    0.241577840891850    0.887024173104388  0.0000
  O3     O3        0.638936701694505    0.743967181829074    0.889582154976639  0.0000
  O3     O3        0.873533044463684    0.640726355288099    0.891363635591063  0.0000
  O1     O1        0.612349988661975    0.345864142996557    0.891500073115674  0.0000
  O3     O3        0.140256119386143    0.733931575617618    0.149407844136277  0.0000
  O1     O1        0.358797784847535    0.229606690962534    0.143172924243503  0.0000
  O1     O1        0.657024444670827    0.530717365464881    0.110908479895905  0.0000
  O1     O1        0.836085658998035    0.452289564499234    0.110977061632477  0.0000
  O1     O1        0.344082902262915    0.442967708173869    0.924385316020439  0.0000
  O3     O3        0.155752139787700    0.509104542918096    0.936157803536389  0.0000
  O1     O1        0.728991423599122    0.216213946106956    0.045348136523564  0.0000
  O1     O1        0.763889313559643    0.773840986757142    0.063879903860938  0.0000
  O3     O3        0.227052191122227    0.220323771586489    0.993892165523867  0.0000
  O1     O1        0.265290502504045    0.752276285729261    0.976428877124633  0.0000
