data_c00294.vasp
_audit_creation_method             Generated by GULP
_audit_author_name                 Salvador R. G. Balestra
_symmetry_space_group_name_H-M     'P 1             '
_symmetry_Int_Tables_number        1

loop_
_symmetry_equiv_pos_site_id
_symmetry_equiv_pos_as_xyz
_cell_length_a                       17.6082
_cell_length_b                        7.8118
_cell_length_c                       10.3251
_cell_angle_alpha                   89.3458
_cell_angle_beta                    90.3561
_cell_angle_gamma                   91.3746

loop_
_atom_site_label
_atom_site_type_symbol
_atom_site_fract_x
_atom_site_fract_y
_atom_site_fract_z
_atom_site_charge
  Ge     Ge        0.052090000000021    0.000000000000000    0.372269999999958  0.0000
  Ge     Ge        0.442652324168090    0.056179981444134    0.367100147960606  0.0000
  Ge     Ge        0.948664522030392    0.065594635859451    0.623609241464061  0.0000
  Ge     Ge        0.541013367338627    0.016286181466754    0.626338048920379  0.0000
  Ge     Ge        0.553719442885197    0.005195443570795    0.130789946853607  0.0000
  Ge     Ge        0.946383184363304    0.067560244330652    0.120740682965041  0.0000
  Ge     Ge        0.440278243233842    0.064286271027315    0.888394357880588  0.0000
  Ge     Ge        0.173108864247352    0.286108032179049    0.259172859932709  0.0000
  Ge     Ge        0.324670796857498    0.760278322425739    0.253570462357273  0.0000
  Ge     Ge        0.849192587161883    0.380539664373441    0.689385857858122  0.0000
  Ge     Ge        0.641469633713277    0.700754641073567    0.692931027395811  0.0000
  Ge     Ge        0.821876391385171    0.783051161942426    0.691863893446361  0.0000
  Ge     Ge        0.669028356784466    0.295794520463870    0.695638355992241  0.0000
  Ge     Ge        0.143373499719029    0.686903323864715    0.258700747372421  0.0000
  Ge     Ge        0.674252789520648    0.290576187011093    0.010671900050609  0.0000
  Ge     Ge        0.823685004574944    0.784104116925882    0.007151598261776  0.0000
  Ge     Ge        0.145551270572247    0.700120526250343    0.941632239745201  0.0000
  Ge     Ge        0.164444482734563    0.300543914110797    0.942534660078502  0.0000
  Ge     Ge        0.643738792267915    0.694766137012744    0.008639777617843  0.0000
  Ge     Ge        0.853919511464320    0.381777113959904    0.004849588133816  0.0000
  Si     Si        0.047892901362647    0.008493396519641    0.875855373431880  0.0000
  Si     Si        0.348942713005182    0.360683376520242    0.247786184702441  0.0000
  Si     Si        0.341990949852056    0.373508505606544    0.944351352856943  0.0000
  Si     Si        0.324402686001763    0.767166535972106    0.948306013860454  0.0000
  O1     O1        0.131708666407466    0.126371900983258    0.348368420681617  0.0000
  O1     O1        0.374010554451237    0.899479122098664    0.349128396140235  0.0000
  O1     O1        0.915024496877750    0.268532400785479    0.604603214868065  0.0000
  O1     O1        0.574716423307016    0.813145644616590    0.608176520950652  0.0000
  O1     O1        0.873836011469008    0.924564127160598    0.598735870292920  0.0000
  O1     O1        0.616578347525509    0.157497677500406    0.603046308392701  0.0000
  O1     O1        0.075669243367827    0.792398302715438    0.342695858523367  0.0000
  O3     O3        0.413978847099733    0.258994444745869    0.321011492942686  0.0000
  O1     O1        0.024631117503550    0.022451729041483    0.530462447204078  0.0000
  O1     O1        0.465489419444607    0.060210940382490    0.529360869379974  0.0000
  O1     O1        0.976567301784768    0.061580385460547    0.278758782058408  0.0000
  O1     O1        0.525117246808269    0.009607366796510    0.289567372856315  0.0000
  O3     O3        0.976485751209242    0.042460836169734    0.785809688570398  0.0000
  O1     O1        0.513261171973759    0.038192496894375    0.785768990729579  0.0000
  O1     O1        0.630523235821562    0.140444419184211    0.107674434877858  0.0000
  O1     O1        0.869342754378883    0.932430148799820    0.101801302715650  0.0000
  O3     O3        0.400400049796523    0.265756077212100    0.863530350151199  0.0000
  O3     O3        0.084907258866291    0.825060218195151    0.851649382300026  0.0000
  O3     O3        0.372123282548990    0.901261669675708    0.862387828155434  0.0000
  O3     O3        0.113828553786956    0.152608730573447    0.853202683790943  0.0000
  O1     O1        0.577395162983862    0.798979736310456    0.095861597099683  0.0000
  O1     O1        0.922977288675180    0.275253164121010    0.087615698930478  0.0000
  O1     O1        0.475415972517817    0.064562064792387    0.042889572132727  0.0000
  O3     O3        0.021589205637096    0.007674109428310    0.025459133274466  0.0000
  O1     O1        0.152744108000523    0.483638698116017    0.319850665654926  0.0000
  O3     O3        0.341129103313208    0.550276396432385    0.302539231112319  0.0000
  O1     O1        0.835016341082707    0.581265034620468    0.629197634971706  0.0000
  O1     O1        0.655084519527878    0.500464946215349    0.635422937563122  0.0000
  O3     O3        0.269977009102669    0.255145509182775    0.263859825550595  0.0000
  O1     O1        0.229812873817584    0.794815026575267    0.266149221253296  0.0000
  O1     O1        0.765003338005307    0.262018578066497    0.690703380630783  0.0000
  O1     O1        0.726225685036159    0.818087007083089    0.689852310905442  0.0000
  O1     O1        0.139585769861913    0.279827031256736    0.102440778114777  0.0000
  O3     O3        0.354396183375431    0.789453581529752    0.095094254774461  0.0000
  O1     O1        0.880359926131435    0.405201771004359    0.846129758736661  0.0000
  O1     O1        0.613007590122121    0.678733929827618    0.851329311373818  0.0000
  O1     O1        0.853831945923032    0.797397126340160    0.849507728236397  0.0000
  O1     O1        0.640217194607516    0.277374606684137    0.854729346131581  0.0000
  O1     O1        0.116627336533146    0.675279354697994    0.098846818817357  0.0000
  O2     O2        0.367690358775310    0.375786652137204    0.094934500026319  0.0000
  O1     O1        0.658429409394878    0.493080905742743    0.068572497644136  0.0000
  O1     O1        0.841297797986386    0.581107772271432    0.066829428953011  0.0000
  O2     O2        0.335827188624212    0.571520263510798    0.898059163231857  0.0000
  O1     O1        0.145583415120234    0.499559211826787    0.878862891941916  0.0000
  O1     O1        0.770481945507652    0.261909718893727    0.010299992236975  0.0000
  O1     O1        0.727616279020432    0.813429230826042    0.010335279054830  0.0000
  O3     O3        0.261260903099235    0.275248733452265    0.932531673817115  0.0000
  O3     O3        0.234991497222417    0.799685494486452    0.942984731833849  0.0000
