data_c00222.vasp
_audit_creation_method             Generated by GULP
_audit_author_name                 Salvador R. G. Balestra
_symmetry_space_group_name_H-M     'P 1             '
_symmetry_Int_Tables_number        1

loop_
_symmetry_equiv_pos_site_id
_symmetry_equiv_pos_as_xyz
_cell_length_a                       17.6711
_cell_length_b                        7.8181
_cell_length_c                       10.1396
_cell_angle_alpha                   88.5125
_cell_angle_beta                    89.8078
_cell_angle_gamma                   91.1358

loop_
_atom_site_label
_atom_site_type_symbol
_atom_site_fract_x
_atom_site_fract_y
_atom_site_fract_z
_atom_site_charge
  Ge     Ge        0.052090000000021    0.000000000000000    0.372269999999958  0.0000
  Ge     Ge        0.447044155433678    0.057351892054483    0.365498011321981  0.0000
  Ge     Ge        0.944526466872966    0.080724620874161    0.613738773491551  0.0000
  Ge     Ge        0.557089550950474    0.044507769227438    0.617506059216737  0.0000
  Ge     Ge        0.551492166328458    0.004043535683820    0.111211524107860  0.0000
  Ge     Ge        0.955227384887027    0.066633289493208    0.111198962980200  0.0000
  Ge     Ge        0.445359247551957    0.066939967926215    0.863236995382605  0.0000
  Ge     Ge        0.058177399813994    0.009008561540786    0.854409649544546  0.0000
  Ge     Ge        0.175449146777535    0.284556263437186    0.300114356486507  0.0000
  Ge     Ge        0.329184440230994    0.765999332171285    0.292579705816548  0.0000
  Ge     Ge        0.856453867179712    0.402753298368781    0.722487906104249  0.0000
  Ge     Ge        0.672659750871008    0.337574921919808    0.719600685813659  0.0000
  Ge     Ge        0.148389149575956    0.687562291706139    0.296699078924614  0.0000
  Ge     Ge        0.675055087243111    0.294050576501015    0.037073545681739  0.0000
  Ge     Ge        0.829424714210210    0.781894332521794    0.047716457043084  0.0000
  Ge     Ge        0.148012244655560    0.689773344760824    0.976072979063117  0.0000
  Ge     Ge        0.330159870326245    0.767113726748952    0.975823037290321  0.0000
  Ge     Ge        0.178764165071098    0.286975240885282    0.975917799848430  0.0000
  Ge     Ge        0.653454873640879    0.698210228474440    0.053773461703748  0.0000
  Ge     Ge        0.853978293972440    0.376513324568784    0.041222727729883  0.0000
  Si     Si        0.653240113548441    0.728201642926572    0.738147105381206  0.0000
  Si     Si        0.829164952655510    0.794950200233116    0.734216700897984  0.0000
  Si     Si        0.349191452086558    0.368424016196779    0.298739907270465  0.0000
  Si     Si        0.353493005111324    0.369807907907266    0.986619027602286  0.0000
  O1     O1        0.125789383532155    0.142673852648278    0.398760914728220  0.0000
  O1     O1        0.378138023024073    0.901614254921397    0.392743958425388  0.0000
  O1     O1        0.919012128645424    0.289284248763988    0.629939336249773  0.0000
  O3     O3        0.594701719797209    0.850559541185754    0.666421324579606  0.0000
  O3     O3        0.866476081263260    0.952794560450903    0.653818806516694  0.0000
  O1     O1        0.624601069653707    0.203243652047111    0.617549731259001  0.0000
  O1     O1        0.085684210737361    0.797134695520605    0.391539066009243  0.0000
  O3     O3        0.411797042345161    0.263027085607262    0.377510734409105  0.0000
  O1     O1        0.970394017578398    0.043984888061137    0.452830497514455  0.0000
  O1     O1        0.525859401432094    0.026665091425499    0.457289654624229  0.0000
  O1     O1        0.031571122604145    0.026522997691399    0.205558526954407  0.0000
  O1     O1        0.474165793924218    0.042535549468464    0.202744039515053  0.0000
  O1     O1        0.026632851671214    0.028796085907724    0.694596349919323  0.0000
  O1     O1        0.475893970627754    0.089714376957162    0.702461266598722  0.0000
  O1     O1        0.624633184183981    0.149680892123341    0.131890795813621  0.0000
  O1     O1        0.884938249616439    0.912982470123806    0.137940064240116  0.0000
  O3     O3        0.419302014516262    0.266342687225396    0.919764757518607  0.0000
  O1     O1        0.082819749321513    0.800386544664303    0.885521354618174  0.0000
  O1     O1        0.374664867381763    0.913557162110896    0.872452495629523  0.0000
  O1     O1        0.137120544119232    0.135841227036811    0.881073315288866  0.0000
  O1     O1        0.586221862915204    0.801550239736650    0.139735848171120  0.0000
  O1     O1        0.916778751908583    0.263841834371281    0.135380554204510  0.0000
  O1     O1        0.524127991855853    0.008359113507450    0.948266687715724  0.0000
  O1     O1        0.983203742183183    0.068594701670565    0.948094545114998  0.0000
  O1     O1        0.157872579314988    0.485009091857100    0.358261059398621  0.0000
  O3     O3        0.340347825050439    0.556371651843738    0.353283001978995  0.0000
  O3     O3        0.851448123280336    0.616368322183373    0.670078059295234  0.0000
  O3     O3        0.655721115030401    0.547055489392234    0.667817154102063  0.0000
  O3     O3        0.272057982229421    0.255146235476069    0.309958732508914  0.0000
  O1     O1        0.233754598703393    0.799997274115039    0.293600316006973  0.0000
  O1     O1        0.768309737045207    0.308875673796002    0.711888765658411  0.0000
  O2     O2        0.737977324933591    0.814498655956183    0.736581426203974  0.0000
  O1     O1        0.149078015484653    0.268614712982439    0.137400707315177  0.0000
  O1     O1        0.362352473676644    0.795028270478153    0.133565410993320  0.0000
  O1     O1        0.887472429973199    0.398067375004826    0.881675748142309  0.0000
  O3     O3        0.629370936643328    0.687910359256198    0.887941892154838  0.0000
  O3     O3        0.858815682067268    0.797120883825513    0.883688330721350  0.0000
  O1     O1        0.641504533727921    0.291879574286217    0.877510326950156  0.0000
  O1     O1        0.117063084186604    0.674447913844835    0.136861344374332  0.0000
  O2     O2        0.368624626875108    0.395359996888163    0.142662993844642  0.0000
  O1     O1        0.664745767417875    0.492859495274066    0.106248170889531  0.0000
  O1     O1        0.840239750029877    0.573097319724917    0.103448740387361  0.0000
  O3     O3        0.347003888339932    0.559652580661496    0.924485020916915  0.0000
  O1     O1        0.156779792133121    0.487966969001000    0.916694410308642  0.0000
  O1     O1        0.770378656977712    0.258484798119457    0.033420564047959  0.0000
  O1     O1        0.735416982933539    0.821582296699089    0.062777972964948  0.0000
  O3     O3        0.275873732417392    0.261995022113107    0.968782886548567  0.0000
  O1     O1        0.234440454858774    0.795513704422726    0.972576363682834  0.0000
