data_c00226.vasp
_audit_creation_method             Generated by GULP
_audit_author_name                 Salvador R. G. Balestra
_symmetry_space_group_name_H-M     'P 1             '
_symmetry_Int_Tables_number        1

loop_
_symmetry_equiv_pos_site_id
_symmetry_equiv_pos_as_xyz
_cell_length_a                       17.6953
_cell_length_b                        7.8325
_cell_length_c                       10.1508
_cell_angle_alpha                   90.0949
_cell_angle_beta                    89.6088
_cell_angle_gamma                   90.9686

loop_
_atom_site_label
_atom_site_type_symbol
_atom_site_fract_x
_atom_site_fract_y
_atom_site_fract_z
_atom_site_charge
  Ge     Ge        0.052090000000021    0.000000000000000    0.372269999999958  0.0000
  Ge     Ge        0.445282150414009    0.048928669151529    0.372501425673883  0.0000
  Ge     Ge        0.943797055927775    0.047217189701763    0.622392323050925  0.0000
  Ge     Ge        0.554362338751277    0.005890328896918    0.623303569845882  0.0000
  Ge     Ge        0.553286422323746    0.014105223034848    0.122208490728714  0.0000
  Ge     Ge        0.941012496995514    0.067927862638184    0.131395347110699  0.0000
  Ge     Ge        0.447974774220742    0.065088567367704    0.874448421053755  0.0000
  Ge     Ge        0.046284690797499    0.002194158333178    0.878312242229577  0.0000
  Ge     Ge        0.170326402889362    0.295993412647741    0.262352887627334  0.0000
  Ge     Ge        0.323673711268381    0.766634574035489    0.261799922058656  0.0000
  Ge     Ge        0.852092302449363    0.370498086388112    0.695800024304560  0.0000
  Ge     Ge        0.669320161900775    0.301431952806953    0.695854763059377  0.0000
  Ge     Ge        0.351351374721000    0.366545522505378    0.259285598114741  0.0000
  Ge     Ge        0.667986488177825    0.310815239643671    0.011517597046363  0.0000
  Ge     Ge        0.820471381757198    0.784201161669856    0.004846477229910  0.0000
  Ge     Ge        0.347576561559712    0.374731194864942    0.936814545951886  0.0000
  Ge     Ge        0.147372271317713    0.691162036391978    0.941185277516395  0.0000
  Ge     Ge        0.324052146249633    0.777739107895102    0.941962013969147  0.0000
  Ge     Ge        0.170129348387882    0.286583938905260    0.943782095637237  0.0000
  Ge     Ge        0.850901816840095    0.381496420347658    0.013503627648101  0.0000
  Si     Si        0.652521777956186    0.694401384213067    0.686620525488647  0.0000
  Si     Si        0.825383674023323    0.763686367120522    0.688354246386074  0.0000
  Si     Si        0.147251610202944    0.691989096620196    0.255575534345597  0.0000
  Si     Si        0.645905175606521    0.707913927308053    0.997588082716438  0.0000
  O1     O1        0.120251224525210    0.156477860514353    0.360099710310873  0.0000
  O1     O1        0.366962506337245    0.919736726812361    0.355532388435206  0.0000
  O1     O1        0.909784960310327    0.248792552489364    0.598286977070952  0.0000
  O3     O3        0.594115753770658    0.805340921616243    0.606441150486713  0.0000
  O3     O3        0.869569806373898    0.900942364778124    0.600529323021934  0.0000
  O1     O1        0.622090541928139    0.161293496375503    0.595177934899612  0.0000
  O3     O3        0.085171278797950    0.799835348346965    0.333710771045769  0.0000
  O1     O1        0.419642626285311    0.254812047514879    0.338967392938416  0.0000
  O1     O1        0.022352417170437    0.997607267638128    0.535035424678200  0.0000
  O1     O1        0.474917962723316    0.032043942150793    0.533535390158837  0.0000
  O1     O1        0.969545029262936    0.044077079409330    0.291529142092431  0.0000
  O1     O1        0.523253997057999    0.989539674722090    0.282477741667104  0.0000
  O1     O1        0.969094911745811    0.039458860664580    0.786552977319895  0.0000
  O1     O1        0.526677294034982    0.023348922731939    0.785711022945012  0.0000
  O1     O1        0.622580294203159    0.169541174303310    0.114771045296488  0.0000
  O1     O1        0.863336447023142    0.942790623292847    0.091573045161747  0.0000
  O1     O1        0.411457511505956    0.264004120294329    0.845027589127944  0.0000
  O1     O1        0.080162320928972    0.798878470897948    0.857341613843585  0.0000
  O1     O1        0.376898256200417    0.915922214852652    0.849220934554729  0.0000
  O1     O1        0.118506402776225    0.148015172459813    0.849601497291603  0.0000
  O3     O3        0.580146170259328    0.814951236506193    0.063314241233895  0.0000
  O1     O1        0.914127025459997    0.275677596146568    0.108671318928284  0.0000
  O1     O1        0.474120251928696    0.069802405863036    0.038070715311877  0.0000
  O1     O1        0.019010595613641    0.014907928956825    0.041501914127956  0.0000
  O3     O3        0.157265421051197    0.504892782734250    0.317207296990550  0.0000
  O1     O1        0.342648458834571    0.568635994692473    0.324066035179983  0.0000
  O3     O3        0.845801056953515    0.575785342454320    0.636121356621978  0.0000
  O3     O3        0.654323558720319    0.504512051188977    0.631642041811014  0.0000
  O1     O1        0.265464759361330    0.259148341087404    0.269204443423602  0.0000
  O3     O3        0.226638116212174    0.795923781856283    0.260070674407194  0.0000
  O1     O1        0.764445956787295    0.271325421345378    0.699029074225353  0.0000
  O2     O2        0.734941601052948    0.787829384952812    0.676738341578536  0.0000
  O1     O1        0.138501612726543    0.269779847398485    0.104529734235854  0.0000
  O1     O1        0.355265792105446    0.788733906434292    0.102152452170067  0.0000
  O1     O1        0.884760871056561    0.378775136939921    0.854140829720574  0.0000
  O2     O2        0.630572445641598    0.679143578492030    0.841566298702600  0.0000
  O3     O3        0.848660401472449    0.783914170880615    0.840888004956349  0.0000
  O1     O1        0.635517677277631    0.277308348740070    0.854468657252110  0.0000
  O3     O3        0.121753056387609    0.665179979852114    0.105671567083673  0.0000
  O1     O1        0.376000642562750    0.397593827508068    0.097720997343402  0.0000
  O3     O3        0.651143987706423    0.520949394476078    0.060249786931525  0.0000
  O1     O1        0.843103887625654    0.588323214215714    0.067145086726982  0.0000
  O1     O1        0.333677368181997    0.574322423775401    0.877455102966492  0.0000
  O1     O1        0.158609482809025    0.490390042558742    0.881741825805376  0.0000
  O1     O1        0.763378241481732    0.282002976845881    0.016781060900470  0.0000
  O3     O3        0.723922946215936    0.813502992157193    0.016073654849519  0.0000
  O1     O1        0.265191255557596    0.252043395966350    0.941010494213331  0.0000
  O1     O1        0.228877356775635    0.814832974130972    0.936836630910928  0.0000
