data_c00275.vasp
_audit_creation_method             Generated by GULP
_audit_author_name                 Salvador R. G. Balestra
_symmetry_space_group_name_H-M     'P 1             '
_symmetry_Int_Tables_number        1

loop_
_symmetry_equiv_pos_site_id
_symmetry_equiv_pos_as_xyz
_cell_length_a                       17.5628
_cell_length_b                        7.8291
_cell_length_c                       10.3769
_cell_angle_alpha                   90.3204
_cell_angle_beta                    90.1794
_cell_angle_gamma                   88.5221

loop_
_atom_site_label
_atom_site_type_symbol
_atom_site_fract_x
_atom_site_fract_y
_atom_site_fract_z
_atom_site_charge
  Ge     Ge        0.052090000000021    0.000000000000000    0.372269999999958  0.0000
  Ge     Ge        0.451062734901963    0.941659470190092    0.363066064551143  0.0000
  Ge     Ge        0.951525716404773    0.950304851913513    0.629771501003456  0.0000
  Ge     Ge        0.547708914792824    0.998569006827563    0.623292929598598  0.0000
  Ge     Ge        0.558023039923917    0.008102863546428    0.122522566343983  0.0000
  Ge     Ge        0.941115039821008    0.957731128935361    0.127589734673500  0.0000
  Ge     Ge        0.445241195116219    0.948509774414208    0.880552775950382  0.0000
  Ge     Ge        0.146060170476697    0.313052240031866    0.255987796586907  0.0000
  Ge     Ge        0.353984713677292    0.633107826273519    0.250889178664966  0.0000
  Ge     Ge        0.826578788852009    0.232465693064629    0.707254215331061  0.0000
  Ge     Ge        0.673804489550450    0.718701768197937    0.695919337090994  0.0000
  Ge     Ge        0.853053508665711    0.638190655438414    0.699815075184865  0.0000
  Ge     Ge        0.644952456453433    0.314130742525943    0.700151337735360  0.0000
  Ge     Ge        0.173918395384065    0.713983080559142    0.265210507573725  0.0000
  Ge     Ge        0.326595014680380    0.229353196144215    0.250059473187785  0.0000
  Ge     Ge        0.642871734942035    0.331883433446186    0.011172100689262  0.0000
  Ge     Ge        0.325363905009780    0.248492234413470    0.937301503194311  0.0000
  Ge     Ge        0.164670965979365    0.721054699471369    0.953008327216519  0.0000
  Ge     Ge        0.143839163695205    0.322058792962168    0.939946371660841  0.0000
  Ge     Ge        0.827030030253892    0.254736130827134    0.018195203019562  0.0000
  Si     Si        0.046587902566756    0.012004114689014    0.884727919346247  0.0000
  Si     Si        0.848861030036523    0.647700350104070    0.006084464292050  0.0000
  Si     Si        0.343004959065619    0.643485946658537    0.944261649903464  0.0000
  Si     Si        0.671856376698345    0.723190111376890    0.002231016867059  0.0000
  O1     O1        0.076964383073462    0.203979213798586    0.333872804508970  0.0000
  O1     O1        0.425579357931975    0.736197834798469    0.327943568459301  0.0000
  O1     O1        0.875389985633312    0.090485668072533    0.611187578358752  0.0000
  O1     O1        0.623092774273692    0.855937343625398    0.600723664408655  0.0000
  O1     O1        0.920464264902263    0.744786516645191    0.615312570164833  0.0000
  O1     O1        0.581140270689921    0.201830125862376    0.609633003347618  0.0000
  O1     O1        0.128806570207642    0.862611786357037    0.360648944832237  0.0000
  O1     O1        0.375257764838090    0.078540377353097    0.337048588639471  0.0000
  O1     O1        0.024595551430939    0.995633621671969    0.531648265145829  0.0000
  O1     O1        0.473171211721806    0.959067677913353    0.524375805085457  0.0000
  O1     O1        0.975204205808260    0.939222131295335    0.281843528742273  0.0000
  O1     O1        0.532535913720494    0.990041999522289    0.281189948158541  0.0000
  O3     O3        0.978304600454223    0.971806423219500    0.790960092319702  0.0000
  O1     O1        0.520530013383341    0.964334428138080    0.780773840015386  0.0000
  O1     O1        0.580635155499709    0.218228068059206    0.100878170978584  0.0000
  O3     O3        0.904453290406652    0.761550717421637    0.088902151926977  0.0000
  O1     O1        0.380312283443547    0.111798370753826    0.846768885718312  0.0000
  O3     O3        0.116911584705113    0.876760718683117    0.866352147262410  0.0000
  O3     O3        0.400135929958826    0.754457409821001    0.862164770548583  0.0000
  O3     O3        0.077461454251539    0.201122612189945    0.859892228391961  0.0000
  O3     O3        0.636370924257894    0.877717071212574    0.084746995211282  0.0000
  O1     O1        0.872349799229540    0.115966192227249    0.121184963927553  0.0000
  O1     O1        0.478620791199629    0.955232440682216    0.036638793135478  0.0000
  O3     O3        0.018429119224442    0.003655769037825    0.032575039973289  0.0000
  O1     O1        0.159453759307765    0.511046919821215    0.322561838825712  0.0000
  O1     O1        0.343861258032879    0.431213071363266    0.309471430559014  0.0000
  O1     O1        0.841664827419973    0.434902268163887    0.647145261320516  0.0000
  O1     O1        0.658998493696349    0.513076079010025    0.641306048801533  0.0000
  O1     O1        0.230512155733277    0.195849672103685    0.257808239696214  0.0000
  O1     O1        0.269915901851256    0.748356706922477    0.266745570987974  0.0000
  O1     O1        0.730521401243737    0.200138264277511    0.705886081649840  0.0000
  O1     O1        0.769001401467130    0.755647242221985    0.687399297910840  0.0000
  O1     O1        0.120154011257890    0.348379727453139    0.099056213549889  0.0000
  O3     O3        0.374697320541545    0.613069860139148    0.088331240591108  0.0000
  O1     O1        0.858680100129143    0.218531999418233    0.864210334581964  0.0000
  O3     O3        0.643190962784547    0.731573938046544    0.855453907777212  0.0000
  O3     O3        0.879226188492026    0.628097074383545    0.861303779597574  0.0000
  O1     O1        0.610936302028366    0.328399050133203    0.855270977458163  0.0000
  O1     O1        0.137439662031269    0.732866423670196    0.111423945587060  0.0000
  O1     O1        0.356480541991320    0.218582756722678    0.092887509094572  0.0000
  O3     O3        0.648032503967829    0.542926377199405    0.062549907657282  0.0000
  O3     O3        0.845292534255110    0.461987686603505    0.068526824198180  0.0000
  O3     O3        0.333210662827793    0.457381127406057    0.882354137679174  0.0000
  O1     O1        0.146760105228038    0.526123847690111    0.882326867069125  0.0000
  O1     O1        0.730652678835879    0.231952455840427    0.021500227904251  0.0000
  O2     O2        0.763861574818170    0.734832012925909    0.000221192619496  0.0000
  O1     O1        0.229788445576215    0.212352288418161    0.929823754445330  0.0000
  O3     O3        0.262392210547443    0.746959356860506    0.952440989763358  0.0000
