data_c00232.vasp
_audit_creation_method             Generated by GULP
_audit_author_name                 Salvador R. G. Balestra
_symmetry_space_group_name_H-M     'P 1             '
_symmetry_Int_Tables_number        1

loop_
_symmetry_equiv_pos_site_id
_symmetry_equiv_pos_as_xyz
_cell_length_a                       17.7345
_cell_length_b                        7.8721
_cell_length_c                       10.1783
_cell_angle_alpha                   88.9132
_cell_angle_beta                    89.7623
_cell_angle_gamma                   88.8276

loop_
_atom_site_label
_atom_site_type_symbol
_atom_site_fract_x
_atom_site_fract_y
_atom_site_fract_z
_atom_site_charge
  Ge     Ge        0.052090000000021    0.000000000000000    0.372269999999958  0.0000
  Ge     Ge        0.445886474593894    0.963105151151726    0.418733278926160  0.0000
  Ge     Ge        0.942852326332953    0.975538145694427    0.622571449425944  0.0000
  Ge     Ge        0.553659430949398    0.015325507404794    0.668952711659302  0.0000
  Ge     Ge        0.552692083768610    0.008472378494420    0.167589004546285  0.0000
  Ge     Ge        0.945545690894748    0.955299463892216    0.120462096442455  0.0000
  Ge     Ge        0.445834713047313    0.967288970953272    0.919358297755793  0.0000
  Ge     Ge        0.050926612282480    0.021490193331069    0.869389750864625  0.0000
  Ge     Ge        0.144676545878035    0.324070983748880    0.305377341903785  0.0000
  Ge     Ge        0.349023923144515    0.651577923775271    0.305504521700394  0.0000
  Ge     Ge        0.830355651897641    0.275135635628860    0.729482856849589  0.0000
  Ge     Ge        0.648533219779629    0.332632587524085    0.730207077043540  0.0000
  Ge     Ge        0.325981088394387    0.252632240261770    0.305366493002069  0.0000
  Ge     Ge        0.845677358148141    0.646131732297487    0.059427769496065  0.0000
  Ge     Ge        0.323271412794233    0.251880479465365    0.987280850878240  0.0000
  Ge     Ge        0.171440873158437    0.732066220073921    0.992703932835932  0.0000
  Ge     Ge        0.349349504456947    0.651614914539087    0.984401551984012  0.0000
  Ge     Ge        0.142986896408907    0.328976829681512    0.988800734995900  0.0000
  Ge     Ge        0.667175175514263    0.710431325217390    0.052309199659426  0.0000
  Ge     Ge        0.825425331380571    0.244950879901861    0.047011229839143  0.0000
  Si     Si        0.668327787292990    0.725416437876653    0.742090928585219  0.0000
  Si     Si        0.844379348426294    0.667694352378231    0.746108840127281  0.0000
  Si     Si        0.171412361601394    0.716916333794483    0.305985170635323  0.0000
  Si     Si        0.648597979036087    0.310709637712197    0.041082551693200  0.0000
  O1     O1        0.085943395994530    0.199531475746883    0.399178470981483  0.0000
  O1     O1        0.414222090388642    0.762966218276055    0.389154126684484  0.0000
  O1     O1        0.881416010116253    0.145367744793364    0.628693640068416  0.0000
  O3     O3        0.628426085025648    0.869088329719996    0.653140017091183  0.0000
  O3     O3        0.898341686378420    0.789895006425956    0.665459754506066  0.0000
  O1     O1        0.588264851526177    0.215104475053687    0.639527366473461  0.0000
  O3     O3        0.125011503838565    0.850715363850794    0.392639057608125  0.0000
  O1     O1        0.371455924648676    0.102600242197694    0.400764302496753  0.0000
  O1     O1        0.974030329044754    0.954814301679162    0.462890117681160  0.0000
  O1     O1        0.476853362080297    0.967997440293393    0.579451230409891  0.0000
  O1     O1        0.022798424591196    0.996058542820339    0.210311006520405  0.0000
  O1     O1        0.524487587852537    0.015734716599598    0.329219016830472  0.0000
  O1     O1        0.024218865692065    0.006671730648780    0.707961959420125  0.0000
  O1     O1        0.524187341207898    0.010087313863701    0.830517596399587  0.0000
  O3     O3        0.591076311670940    0.203509084134402    0.128509950626392  0.0000
  O1     O1        0.911236158396602    0.754079092200352    0.145060800557225  0.0000
  O1     O1        0.372704971912047    0.111218334079884    0.893121809839331  0.0000
  O1     O1        0.125192785742642    0.884630516509025    0.902833550190874  0.0000
  O1     O1        0.413178581247563    0.765954336494419    0.895013108395253  0.0000
  O1     O1        0.078710069874347    0.225978861495029    0.896348459335607  0.0000
  O1     O1        0.615392390041591    0.840886779020048    0.149938710429742  0.0000
  O1     O1        0.871139431069894    0.097187837933224    0.142635831405932  0.0000
  O1     O1        0.471859453313288    0.976459800229714    0.082615676387134  0.0000
  O1     O1        0.972372374738096    0.970908100942288    0.957800724685863  0.0000
  O3     O3        0.156100898468036    0.527151765316356    0.362770515772849  0.0000
  O1     O1        0.342346287382961    0.449692395986243    0.368978754035709  0.0000
  O3     O3        0.843840465709506    0.484902402078274    0.680030534971723  0.0000
  O3     O3        0.649985994032174    0.543439398886740    0.681087061111167  0.0000
  O1     O1        0.230854555167958    0.220911715476298    0.302918401786684  0.0000
  O3     O3        0.260315049062484    0.751678065936919    0.309769824180685  0.0000
  O1     O1        0.735958506515801    0.238622685499612    0.717592352967773  0.0000
  O2     O2        0.758848862568742    0.746877046121516    0.749158993581252  0.0000
  O1     O1        0.110535608283740    0.334718345803549    0.148065693310866  0.0000
  O1     O1        0.377688140295514    0.633303003210122    0.145736051894144  0.0000
  O1     O1        0.859451884147069    0.238141586438040    0.888183726695074  0.0000
  O3     O3        0.637379443811652    0.737412030252309    0.890959642050672  0.0000
  O3     O3        0.872089598527936    0.642498766281213    0.894487300497644  0.0000
  O3     O3        0.618763264471964    0.327084932163890    0.892720319645278  0.0000
  O3     O3        0.142325068657507    0.730145255701376    0.155942494803240  0.0000
  O1     O1        0.357272405040954    0.241027210769218    0.145683946138058  0.0000
  O3     O3        0.657363169919521    0.497875180688635    0.098382979739245  0.0000
  O1     O1        0.840814622496695    0.441027258867945    0.113258861007622  0.0000
  O1     O1        0.337062170339435    0.454572053609300    0.923639304700350  0.0000
  O1     O1        0.154586808005770    0.533217223229804    0.932249771789147  0.0000
  O3     O3        0.729390044497857    0.212432947645119    0.040144622890941  0.0000
  O1     O1        0.760501384493174    0.753055416269233    0.070084984883491  0.0000
  O1     O1        0.228209712415818    0.218805012327177    0.986919749697278  0.0000
  O1     O1        0.265790662402051    0.767965748430194    0.985171620925480  0.0000
