data_c00271.vasp
_audit_creation_method             Generated by GULP
_audit_author_name                 Salvador R. G. Balestra
_symmetry_space_group_name_H-M     'P 1             '
_symmetry_Int_Tables_number        1

loop_
_symmetry_equiv_pos_site_id
_symmetry_equiv_pos_as_xyz
_cell_length_a                       17.5194
_cell_length_b                        7.8439
_cell_length_c                       10.4171
_cell_angle_alpha                   90.3183
_cell_angle_beta                    90.5979
_cell_angle_gamma                   88.2153

loop_
_atom_site_label
_atom_site_type_symbol
_atom_site_fract_x
_atom_site_fract_y
_atom_site_fract_z
_atom_site_charge
  Ge     Ge        0.052090000000021    0.000000000000000    0.372269999999958  0.0000
  Ge     Ge        0.454759380617313    0.939542566526429    0.328639986738591  0.0000
  Ge     Ge        0.952944220424534    0.946284152661874    0.629742558364228  0.0000
  Ge     Ge        0.552418368232675    0.000965046898499    0.587297997894415  0.0000
  Ge     Ge        0.555300101634409    0.006375879218993    0.072231024838928  0.0000
  Ge     Ge        0.940898988145978    0.956990265408685    0.125463164972366  0.0000
  Ge     Ge        0.443332184285678    0.947103843311074    0.827194457993009  0.0000
  Ge     Ge        0.146586572054038    0.311303279604268    0.260712906604582  0.0000
  Ge     Ge        0.355778147350336    0.627115130959703    0.260003531952419  0.0000
  Ge     Ge        0.828841837606723    0.229222825464905    0.711290879199401  0.0000
  Ge     Ge        0.675445200139094    0.712384039787392    0.703278258617659  0.0000
  Ge     Ge        0.856543816889958    0.637229191899213    0.706624763390852  0.0000
  Ge     Ge        0.647003753260709    0.309414067483461    0.706417003210290  0.0000
  Ge     Ge        0.174701567808209    0.711261575010775    0.263479514751084  0.0000
  Ge     Ge        0.328244193614726    0.224698322235650    0.254561084028905  0.0000
  Ge     Ge        0.650885109009972    0.325441836030459    0.018450224889681  0.0000
  Ge     Ge        0.324122588571305    0.233944968193510    0.944035008855705  0.0000
  Ge     Ge        0.167692803302153    0.718121640150094    0.951519373118194  0.0000
  Ge     Ge        0.350708725689375    0.636732595991621    0.947055117813047  0.0000
  Ge     Ge        0.141574127757482    0.318770734343978    0.950274734510844  0.0000
  Si     Si        0.047492186399244    0.006427940790743    0.885557788521304  0.0000
  Si     Si        0.851453010990636    0.645282454969793    0.006893735671232  0.0000
  Si     Si        0.672515126852721    0.712950172660929    0.005807017603950  0.0000
  Si     Si        0.831837402688026    0.254202172323539    0.014891635375552  0.0000
  O1     O1        0.079866906735961    0.203622395821366    0.344130523003915  0.0000
  O1     O1        0.421964746875896    0.737100866640155    0.347020028026255  0.0000
  O1     O1        0.877054914727240    0.089578413441894    0.613955889383242  0.0000
  O1     O1        0.628075514028603    0.862407458802463    0.613971524152826  0.0000
  O1     O1        0.921282088053328    0.742079535175730    0.616279600824468  0.0000
  O1     O1        0.578968303539338    0.205264086813515    0.619828353443280  0.0000
  O1     O1        0.128221980910187    0.860461609822972    0.355627993022761  0.0000
  O1     O1        0.378912608673643    0.082292664959101    0.347305684879669  0.0000
  O1     O1        0.025530365844967    0.986998528913918    0.530879854616301  0.0000
  O1     O1        0.529206034965276    0.985361072511574    0.426447897447055  0.0000
  O1     O1        0.973712552379799    0.949679724421020    0.280687912182218  0.0000
  O1     O1        0.483890190830768    0.954516347015292    0.170603419442962  0.0000
  O3     O3        0.979104414447179    0.972419321053908    0.790197039782917  0.0000
  O1     O1        0.472597739888796    0.947849736139571    0.670210544982101  0.0000
  O1     O1        0.591734742434989    0.203670693013401    0.106388352542054  0.0000
  O3     O3        0.900056192056545    0.760629248365456    0.100878717079853  0.0000
  O1     O1        0.366359625182314    0.085224608015193    0.845762133337980  0.0000
  O3     O3        0.117616053838770    0.870768993679822    0.863996075548955  0.0000
  O1     O1        0.416993424312904    0.743776077971867    0.862776073998581  0.0000
  O3     O3        0.077196993358224    0.196731704381596    0.866136789914306  0.0000
  O3     O3        0.633836623507612    0.863816201734538    0.086015498631958  0.0000
  O3     O3        0.874880717513124    0.124112197334935    0.110338329307380  0.0000
  O1     O1        0.520131967160557    0.008966060793002    0.917677724527676  0.0000
  O3     O3        0.019901811989619    0.985905393545562    0.032419763524192  0.0000
  O1     O1        0.161523445535994    0.509712187651091    0.323877669883113  0.0000
  O1     O1        0.343791694306774    0.426557138457017    0.315938881765238  0.0000
  O1     O1        0.846369730438699    0.432749595195494    0.658066797268072  0.0000
  O1     O1        0.659105480884607    0.509832174399266    0.646885770077446  0.0000
  O1     O1        0.231757776950194    0.194086554418414    0.258005365029311  0.0000
  O1     O1        0.270771164841825    0.744553879369431    0.262109898225376  0.0000
  O1     O1        0.733070938639299    0.196552819710880    0.701823241328670  0.0000
  O1     O1        0.770689240840915    0.748964180470299    0.696163012780966  0.0000
  O1     O1        0.113562437220360    0.340854886797591    0.106726068178657  0.0000
  O1     O1        0.382834825708338    0.612567747356197    0.101989526345063  0.0000
  O3     O3        0.859258655837348    0.216269095852572    0.870732918380054  0.0000
  O3     O3        0.641516279831259    0.721622338485781    0.859732383552549  0.0000
  O3     O3        0.886947636464599    0.646197751008157    0.866410598981277  0.0000
  O1     O1        0.618403584345359    0.322594337510130    0.862912520267747  0.0000
  O1     O1        0.139800238391833    0.723481536114101    0.108948032022127  0.0000
  O1     O1        0.359839473247227    0.212076387535622    0.098189312244213  0.0000
  O3     O3        0.651160096959670    0.534492049039104    0.070767405249166  0.0000
  O2     O2        0.850533027026454    0.449521569758694    0.055611433611637  0.0000
  O1     O1        0.339097327499127    0.435508734988632    0.886217548709297  0.0000
  O1     O1        0.149953195745218    0.518250844682382    0.887920448262181  0.0000
  O3     O3        0.741666777007326    0.232469871878710    0.022398995690429  0.0000
  O2     O2        0.764506578696508    0.721358766104697    0.997770534670163  0.0000
  O1     O1        0.227718438105091    0.207789471380552    0.950845976813180  0.0000
  O1     O1        0.264147636672355    0.748278424201539    0.944609583922666  0.0000
