data_c00284.vasp
_audit_creation_method             Generated by GULP
_audit_author_name                 Salvador R. G. Balestra
_symmetry_space_group_name_H-M     'P 1             '
_symmetry_Int_Tables_number        1

loop_
_symmetry_equiv_pos_site_id
_symmetry_equiv_pos_as_xyz
_cell_length_a                       17.5418
_cell_length_b                        7.8345
_cell_length_c                       10.3403
_cell_angle_alpha                   89.3813
_cell_angle_beta                    91.1963
_cell_angle_gamma                   88.0439

loop_
_atom_site_label
_atom_site_type_symbol
_atom_site_fract_x
_atom_site_fract_y
_atom_site_fract_z
_atom_site_charge
  Ge     Ge        0.052090000000021    0.000000000000000    0.372269999999958  0.0000
  Ge     Ge        0.444436968560135    0.945298526329481    0.365386264062716  0.0000
  Ge     Ge        0.948232249082397    0.946377660083123    0.624083931264743  0.0000
  Ge     Ge        0.543052195731163    0.000137612103328    0.624230707112588  0.0000
  Ge     Ge        0.555994167851191    0.999196207944623    0.130730495706792  0.0000
  Ge     Ge        0.944192342760729    0.942308580658421    0.120234972833491  0.0000
  Ge     Ge        0.443670960299134    0.945192944604677    0.882857503329298  0.0000
  Ge     Ge        0.147462560919666    0.311274647685935    0.256349973433515  0.0000
  Ge     Ge        0.353505829751585    0.629747193774730    0.250194094397730  0.0000
  Ge     Ge        0.822483165891651    0.229876233921924    0.697688835201248  0.0000
  Ge     Ge        0.669738659604157    0.716275536249783    0.697848210698365  0.0000
  Ge     Ge        0.851669436129690    0.631885336681381    0.694832398629321  0.0000
  Ge     Ge        0.641769387765025    0.312807633180032    0.695847571211240  0.0000
  Ge     Ge        0.172353179258824    0.710182439000087    0.263024605153158  0.0000
  Ge     Ge        0.646997472896996    0.312477459739845    0.010773848261084  0.0000
  Ge     Ge        0.857047550840608    0.622619932473629    0.006401300207946  0.0000
  Ge     Ge        0.323383103431158    0.247043109589122    0.942671968268277  0.0000
  Ge     Ge        0.163109053676799    0.717372476221199    0.949421932673063  0.0000
  Ge     Ge        0.141318751730663    0.317612568058245    0.940457640270589  0.0000
  Ge     Ge        0.674563355813069    0.712557116655777    0.011858819876496  0.0000
  Si     Si        0.045580227860285    0.010062406040023    0.878396221578409  0.0000
  Si     Si        0.326389653954831    0.234452357215892    0.248825116062699  0.0000
  Si     Si        0.342362820440010    0.642359410604700    0.944417023902635  0.0000
  Si     Si        0.826106717552705    0.229968885018013    0.005842484945538  0.0000
  O1     O1        0.083245257657212    0.201168287497821    0.342527764657064  0.0000
  O1     O1        0.421061169173972    0.738079135777761    0.333685790369027  0.0000
  O1     O1        0.872434761411252    0.090136256495967    0.604215206962975  0.0000
  O1     O1        0.618886444520656    0.858612751381129    0.601277975227444  0.0000
  O1     O1        0.914757413390584    0.745100819598958    0.605265100648453  0.0000
  O1     O1        0.574709331358789    0.204250601320705    0.609507813117117  0.0000
  O1     O1        0.127296508129928    0.858247306152993    0.356455887178581  0.0000
  O3     O3        0.369009549097248    0.087076266087639    0.332709951485801  0.0000
  O1     O1        0.023103978680846    0.988860208824543    0.530239391640513  0.0000
  O1     O1        0.465983804172200    0.962599379588030    0.527672418023615  0.0000
  O1     O1        0.973538711625346    0.955306545274664    0.278687693066457  0.0000
  O1     O1        0.526528688318936    0.993506108222905    0.288113459566750  0.0000
  O3     O3        0.975462285431661    0.969409452276527    0.786413184259655  0.0000
  O1     O1        0.517898741979862    0.965027790430248    0.783194460117184  0.0000
  O1     O1        0.583315899608188    0.203316140940968    0.098620761291874  0.0000
  O1     O1        0.920796765318156    0.733627205791909    0.097140206030876  0.0000
  O1     O1        0.378025294534644    0.111642475630198    0.854120366869620  0.0000
  O3     O3        0.115822076779146    0.873992123799393    0.858639040348477  0.0000
  O3     O3        0.397655536605562    0.753811835543306    0.859598163714905  0.0000
  O3     O3        0.075870736781104    0.199348827520261    0.855074036905240  0.0000
  O1     O1        0.632985347484435    0.863131241235730    0.107974512047325  0.0000
  O3     O3        0.867067402849328    0.081721092343630    0.091819069070055  0.0000
  O1     O1        0.477936268533114    0.944566755902168    0.039569926529206  0.0000
  O3     O3        0.020632856981604    0.996150002741238    0.027635563666325  0.0000
  O1     O1        0.156863106580752    0.508281771419628    0.322172377155752  0.0000
  O3     O3        0.344397123338185    0.421300722073178    0.304630765006620  0.0000
  O1     O1        0.837273833498346    0.432803972680891    0.637331783127564  0.0000
  O1     O1        0.654433581194672    0.513978181283775    0.638643211841059  0.0000
  O3     O3        0.236231943498530    0.205910117937514    0.251183027820066  0.0000
  O1     O1        0.268404943283089    0.740324877408181    0.266103811529846  0.0000
  O1     O1        0.726932769858242    0.195011121467290    0.691342338086655  0.0000
  O1     O1        0.765991380956342    0.747341619530431    0.697252058759494  0.0000
  O1     O1        0.115812149612521    0.334555340121350    0.099155625617717  0.0000
  O3     O3        0.377368600311715    0.620705845572130    0.089315136664994  0.0000
  O3     O3        0.853675508786446    0.221691420178786    0.858511815282769  0.0000
  O1     O1        0.639784004621126    0.728758309824801    0.855503072445687  0.0000
  O1     O1        0.887647514813489    0.615935165182127    0.850735926024033  0.0000
  O1     O1        0.613638339253643    0.325453266824081    0.853894257305381  0.0000
  O1     O1        0.135536047902181    0.726111891201473    0.107588706335387  0.0000
  O3     O3        0.355143747452436    0.224402173854069    0.102227282251666  0.0000
  O1     O1        0.655712755573272    0.512265810923783    0.071805270298445  0.0000
  O3     O3        0.846049843538354    0.415476513414471    0.062448661827560  0.0000
  O3     O3        0.332429819092711    0.455787281401743    0.886539924985634  0.0000
  O1     O1        0.144300244330675    0.522282812238128    0.882241758177263  0.0000
  O3     O3        0.735657426526701    0.206526418144467    0.008407479497576  0.0000
  O1     O1        0.771169354459720    0.733573821311056    0.010526912875357  0.0000
  O1     O1        0.228254721287682    0.209937464832778    0.931759179899375  0.0000
  O3     O3        0.260682218413760    0.742757370013305    0.952205614774717  0.0000
