data_c00299.vasp
_audit_creation_method             Generated by GULP
_audit_author_name                 Salvador R. G. Balestra
_symmetry_space_group_name_H-M     'P 1             '
_symmetry_Int_Tables_number        1

loop_
_symmetry_equiv_pos_site_id
_symmetry_equiv_pos_as_xyz
_cell_length_a                       17.5440
_cell_length_b                        7.8583
_cell_length_c                       10.3235
_cell_angle_alpha                   89.1810
_cell_angle_beta                    90.4616
_cell_angle_gamma                   91.9521

loop_
_atom_site_label
_atom_site_type_symbol
_atom_site_fract_x
_atom_site_fract_y
_atom_site_fract_z
_atom_site_charge
  Ge     Ge        0.052090000000021    0.000000000000000    0.372269999999958  0.0000
  Ge     Ge        0.445374783924534    0.062086756167797    0.330446878922148  0.0000
  Ge     Ge        0.951033444543486    0.069744735504918    0.625914900829084  0.0000
  Ge     Ge        0.547436878665607    0.014516534786546    0.589545506286559  0.0000
  Ge     Ge        0.551220259642401    0.004264722335550    0.080885754296774  0.0000
  Ge     Ge        0.946375860066022    0.061567232789165    0.119645921422639  0.0000
  Ge     Ge        0.441198390002832    0.060962116750672    0.835558479971140  0.0000
  Ge     Ge        0.171555197887412    0.293218287733900    0.256855555789923  0.0000
  Ge     Ge        0.326286148948349    0.765459668023117    0.258966111215624  0.0000
  Ge     Ge        0.854125360097168    0.382733494471764    0.695626595826849  0.0000
  Ge     Ge        0.643700788822759    0.703405358247455    0.701988175769477  0.0000
  Ge     Ge        0.824917799809427    0.783003405330641    0.697129772779425  0.0000
  Ge     Ge        0.671598545226135    0.302552754365198    0.702392820333295  0.0000
  Ge     Ge        0.143958597183798    0.690019952566853    0.262593629181806  0.0000
  Ge     Ge        0.674604834678224    0.297848350820571    0.016279979512366  0.0000
  Ge     Ge        0.350076145182451    0.375355957217077    0.951230367027778  0.0000
  Ge     Ge        0.146026365714156    0.701541938190838    0.947598529337248  0.0000
  Ge     Ge        0.166678479589476    0.303895732972038    0.942905919131125  0.0000
  Ge     Ge        0.651074878265238    0.694953365601015    0.018682875109529  0.0000
  Ge     Ge        0.857024623056635    0.381744061760132    0.007755242976471  0.0000
  Si     Si        0.050528504392284    0.010622388555202    0.877757845403258  0.0000
  Si     Si        0.350148227035897    0.370652101121092    0.256469529608301  0.0000
  Si     Si        0.828998840316611    0.775253211852263    0.005972207580572  0.0000
  Si     Si        0.326400700559832    0.771780769935014    0.953323136508579  0.0000
  O1     O1        0.130797555798736    0.130378476705217    0.344010669022083  0.0000
  O1     O1        0.376901949643677    0.902523305199176    0.355439876808583  0.0000
  O1     O1        0.917610366998431    0.270849880556526    0.606702777570653  0.0000
  O1     O1        0.574535511111266    0.809833186615340    0.619617637998477  0.0000
  O1     O1        0.875380707629056    0.927522744486883    0.604937629691583  0.0000
  O1     O1        0.623761057609743    0.151811726447113    0.613510114446982  0.0000
  O1     O1        0.077830715863044    0.794358092174622    0.349602876088844  0.0000
  O3     O3        0.406457240264066    0.261268397923295    0.344996084770397  0.0000
  O1     O1        0.026068311181157    0.029114771748370    0.530406076605917  0.0000
  O1     O1        0.521991403938736    0.037189351082379    0.428525162394960  0.0000
  O1     O1        0.974375105005366    0.047906759932269    0.278634719210910  0.0000
  O1     O1        0.474252975165532    0.041893476496236    0.172378520733562  0.0000
  O3     O3        0.978630861848620    0.040664502357782    0.787413545168652  0.0000
  O1     O1        0.467289348664035    0.058869836864163    0.675739833598025  0.0000
  O1     O1        0.624913735575232    0.150670249501832    0.106920281109860  0.0000
  O3     O3        0.871710483426102    0.918086910570312    0.090872999682394  0.0000
  O1     O1        0.414537839473896    0.265770526733311    0.866467875562438  0.0000
  O3     O3        0.087016844478391    0.827987745011844    0.856033352623813  0.0000
  O3     O3        0.366648350682763    0.915518823554318    0.864137632849600  0.0000
  O3     O3        0.116083888560958    0.156016563509042    0.852206463630496  0.0000
  O1     O1        0.589496538101889    0.807959118553967    0.107853569042074  0.0000
  O1     O1        0.920409484640440    0.268645433433272    0.097841522208956  0.0000
  O1     O1        0.521431950845115    0.011932537831093    0.921047088433105  0.0000
  O3     O3        0.024698344538168    0.016463665607812    0.027559199131413  0.0000
  O1     O1        0.152662917740482    0.487016813595255    0.322654438587126  0.0000
  O3     O3        0.340414735184380    0.556997837230021    0.312236622483196  0.0000
  O1     O1        0.841258190057587    0.583218486932962    0.636931353213207  0.0000
  O1     O1        0.655289745764212    0.503827948703045    0.641564042809206  0.0000
  O3     O3        0.268835984789307    0.268721531833004    0.249131500880005  0.0000
  O1     O1        0.231046743804602    0.798722542252840    0.268640835199816  0.0000
  O1     O1        0.767869404461996    0.270934225353273    0.699884705303143  0.0000
  O1     O1        0.729459638401125    0.817673585148659    0.690327953980577  0.0000
  O1     O1        0.136975955223324    0.291840590451810    0.100947058988535  0.0000
  O3     O3        0.357807760592554    0.786669755537778    0.100066227718571  0.0000
  O1     O1        0.888775466606232    0.392298468237465    0.851857120761120  0.0000
  O1     O1        0.618600755645036    0.680977710467047    0.861490181870724  0.0000
  O3     O3        0.856008330124934    0.785588621947434    0.857544960175121  0.0000
  O1     O1        0.640383225387693    0.289588535381080    0.859546557082833  0.0000
  O1     O1        0.114422557151194    0.679402071340604    0.103692843142642  0.0000
  O3     O3        0.381511951261847    0.383356758564479    0.110344253605850  0.0000
  O1     O1        0.659863406775503    0.495599024877843    0.080959207549563  0.0000
  O3     O3        0.846263316705253    0.587107016579385    0.062750712574422  0.0000
  O3     O3        0.342465619158678    0.584894963897803    0.898570043911224  0.0000
  O1     O1        0.149588450767386    0.504632860413103    0.881355378525995  0.0000
  O1     O1        0.770835219449602    0.271074074467739    0.014169874860962  0.0000
  O3     O3        0.739023792666792    0.803845953709473    0.010753792222175  0.0000
  O1     O1        0.262670426500381    0.272879201692777    0.936204705926546  0.0000
  O3     O3        0.236179788518645    0.798267531490446    0.956025363550044  0.0000
