data_c00297.vasp
_audit_creation_method             Generated by GULP
_audit_author_name                 Salvador R. G. Balestra
_symmetry_space_group_name_H-M     'P 1             '
_symmetry_Int_Tables_number        1

loop_
_symmetry_equiv_pos_site_id
_symmetry_equiv_pos_as_xyz
_cell_length_a                       17.5533
_cell_length_b                        7.9064
_cell_length_c                       10.3350
_cell_angle_alpha                   88.8242
_cell_angle_beta                    91.3456
_cell_angle_gamma                   90.0890

loop_
_atom_site_label
_atom_site_type_symbol
_atom_site_fract_x
_atom_site_fract_y
_atom_site_fract_z
_atom_site_charge
  Ge     Ge        0.052090000000021    0.000000000000000    0.372269999999958  0.0000
  Ge     Ge        0.447687890247459    0.049103646819759    0.347189728933835  0.0000
  Ge     Ge        0.950437950276104    0.078931086552490    0.619723298816885  0.0000
  Ge     Ge        0.542614787203162    0.075005107751839    0.611873007035189  0.0000
  Ge     Ge        0.569487413991699    0.046774168781213    0.129449483647024  0.0000
  Ge     Ge        0.940248492757081    0.065326819925619    0.122657506539570  0.0000
  Ge     Ge        0.448498214471503    0.078443946401751    0.888013671423081  0.0000
  Ge     Ge        0.173468386142176    0.291067196622330    0.259746540685712  0.0000
  Ge     Ge        0.336549371003939    0.741960113845824    0.264346493763630  0.0000
  Ge     Ge        0.844881341553194    0.381700006737630    0.699941583650554  0.0000
  Ge     Ge        0.651126834115059    0.772514202160882    0.695223672342442  0.0000
  Ge     Ge        0.833019262391085    0.790925462883454    0.689672374664638  0.0000
  Ge     Ge        0.661989453802605    0.355155967162262    0.703362278013963  0.0000
  Ge     Ge        0.148096912217735    0.690681614953298    0.273032308144145  0.0000
  Ge     Ge        0.661576371428761    0.370830994398557    0.018194858763072  0.0000
  Ge     Ge        0.339693605724780    0.395852641841253    0.937685945633985  0.0000
  Ge     Ge        0.144136017799741    0.728690596945200    0.960741034164965  0.0000
  Ge     Ge        0.328712749567795    0.789779481017329    0.955499868444940  0.0000
  Ge     Ge        0.165798664410235    0.324324492923223    0.934899607270156  0.0000
  Ge     Ge        0.850276067873931    0.394267988924400    0.017280308297978  0.0000
  Si     Si        0.046189530509549    0.038659592046113    0.879975876480554  0.0000
  Si     Si        0.345014866945462    0.359909783883410    0.249233114297428  0.0000
  Si     Si        0.841614742695957    0.777510308189638    0.989907792302762  0.0000
  Si     Si        0.660168714579553    0.760130840338279    0.994465233733805  0.0000
  O1     O1        0.127086940529130    0.124155770593557    0.326113694138132  0.0000
  O1     O1        0.386253985122923    0.883621300362677    0.358934695759718  0.0000
  O1     O1        0.904396149204548    0.269760008483260    0.604274172597640  0.0000
  O1     O1        0.588019253649316    0.883214152895863    0.597729786775569  0.0000
  O1     O1        0.886938227572862    0.917480238847785    0.591948726500488  0.0000
  O1     O1        0.608003703042426    0.236526363783975    0.600434094886529  0.0000
  O1     O1        0.087437865621499    0.798367350330768    0.369874735741057  0.0000
  O3     O3        0.413262893684923    0.226922895914899    0.259720125375487  0.0000
  O1     O1        0.027458927664155    0.059291817480739    0.524951766250550  0.0000
  O1     O1        0.468688983379131    0.103226292296651    0.504734262963687  0.0000
  O1     O1        0.970257700718574    0.024246824097077    0.278446644199456  0.0000
  O1     O1        0.534850572419211    0.008656450524928    0.281166376221452  0.0000
  O3     O3        0.975964674002838    0.063622427728986    0.783104840524623  0.0000
  O1     O1        0.510745345152761    0.079441229766408    0.767313218404965  0.0000
  O1     O1        0.609303838534612    0.243998584131450    0.118840223724549  0.0000
  O3     O3        0.864848054688625    0.933342537334629    0.077668484946069  0.0000
  O1     O1        0.418347717380809    0.286233107928463    0.902756921872720  0.0000
  O3     O3        0.086348646674414    0.858059749770734    0.864005578574454  0.0000
  O1     O1        0.371079258859877    0.948139295548914    0.866805066620457  0.0000
  O3     O3        0.106132318189265    0.189545004115986    0.852594499103504  0.0000
  O3     O3        0.641595722375166    0.904633513991840    0.093427310364250  0.0000
  O1     O1        0.907317009285034    0.268646494985771    0.114843338275399  0.0000
  O1     O1        0.491963389599424    0.014283183990242    0.030573471500762  0.0000
  O3     O3        0.018792225703678    0.042639764420692    0.028141862476548  0.0000
  O1     O1        0.147057325334493    0.481758329098380    0.320796691962186  0.0000
  O3     O3        0.361010946154901    0.536861664235011    0.319073138904255  0.0000
  O1     O1        0.838938381216070    0.585441699086932    0.641736783606957  0.0000
  O1     O1        0.653538833235399    0.564411544151135    0.656503230064476  0.0000
  O3     O3        0.269985117968907    0.264067361790630    0.298776763172466  0.0000
  O1     O1        0.240298267582971    0.766233017467870    0.279296389394944  0.0000
  O1     O1        0.755314620194637    0.293889089810640    0.696911148187770  0.0000
  O1     O1        0.740451340118578    0.858464194763718    0.679059902117867  0.0000
  O1     O1        0.153593082066363    0.291569715734823    0.097125197719776  0.0000
  O1     O1        0.365988227870613    0.793047917517938    0.111566759310403  0.0000
  O1     O1        0.875293577843547    0.373038106440521    0.859407718889932  0.0000
  O3     O3        0.620758400947503    0.794147518736489    0.854612148855006  0.0000
  O3     O3        0.872218164050885    0.804100789769130    0.846413878524624  0.0000
  O1     O1        0.634571305367551    0.328024845888296    0.861788055950861  0.0000
  O1     O1        0.113057773491844    0.711104155976001    0.116480213561732  0.0000
  O3     O3        0.324148911777802    0.426121413500984    0.102620555019378  0.0000
  O3     O3        0.636653011932697    0.578096370265434    0.051597907808271  0.0000
  O3     O3        0.870347363715774    0.603421513349335    0.056777896561476  0.0000
  O1     O1        0.345355255755975    0.600494529459451    0.881063914608287  0.0000
  O1     O1        0.146778694033888    0.533106692426281    0.894077869421638  0.0000
  O1     O1        0.757251883107247    0.338249602658642    0.042062757612829  0.0000
  O2     O2        0.750593702487373    0.747990892906441    0.964287236328483  0.0000
  O1     O1        0.258132482553899    0.292526762571207    0.889153603423297  0.0000
  O1     O1        0.232717472838495    0.822234236970618    0.966069035197680  0.0000
