data_c00261.vasp
_audit_creation_method             Generated by GULP
_audit_author_name                 Salvador R. G. Balestra
_symmetry_space_group_name_H-M     'P 1             '
_symmetry_Int_Tables_number        1

loop_
_symmetry_equiv_pos_site_id
_symmetry_equiv_pos_as_xyz
_cell_length_a                       17.5565
_cell_length_b                        7.8980
_cell_length_c                       10.5628
_cell_angle_alpha                   88.4936
_cell_angle_beta                    90.3252
_cell_angle_gamma                   89.4523

loop_
_atom_site_label
_atom_site_type_symbol
_atom_site_fract_x
_atom_site_fract_y
_atom_site_fract_z
_atom_site_charge
  Ge     Ge        0.052090000000021    0.000000000000000    0.372269999999958  0.0000
  Ge     Ge        0.454435802385138    0.004908942855582    0.360805927545245  0.0000
  Ge     Ge        0.951539337580280    0.984095566955504    0.630775611607289  0.0000
  Ge     Ge        0.548224635020011    0.025485565331899    0.623542413015696  0.0000
  Ge     Ge        0.552194804007710    0.001050207903679    0.100268733282505  0.0000
  Ge     Ge        0.952579439908432    0.976349750406566    0.111454218597589  0.0000
  Ge     Ge        0.435028076197245    0.020995937856974    0.858319737285423  0.0000
  Ge     Ge        0.168081645791696    0.285756601772865    0.281459590630787  0.0000
  Ge     Ge        0.334948785331182    0.731000189718994    0.281187418726043  0.0000
  Ge     Ge        0.828443922722492    0.269478932523356    0.734583065628670  0.0000
  Ge     Ge        0.672614291372923    0.734069040857401    0.736641874923953  0.0000
  Ge     Ge        0.853790088795953    0.670357949834766    0.734245631553634  0.0000
  Ge     Ge        0.645116704091995    0.334046016992696    0.730430600920935  0.0000
  Ge     Ge        0.153849286662807    0.696536661962527    0.287105224544670  0.0000
  Ge     Ge        0.350613428764613    0.318566974717756    0.272275887966303  0.0000
  Ge     Ge        0.645792336163012    0.329089768322816    0.036428196647491  0.0000
  Ge     Ge        0.853038066288203    0.660106083277345    0.045013143924371  0.0000
  Ge     Ge        0.345932367383543    0.344045964921939    0.965007112371152  0.0000
  Ge     Ge        0.157019007867412    0.321379948672175    0.974175574290822  0.0000
  Ge     Ge        0.829458100694606    0.262735177956035    0.041272946916077  0.0000
  Si     Si        0.058663167028081    0.019041122769527    0.869419015230634  0.0000
  Si     Si        0.150666277967470    0.710334842695372    0.991814406054366  0.0000
  Si     Si        0.333123030660773    0.733966321822987    0.985947512160236  0.0000
  Si     Si        0.673397920284392    0.717788257266941    0.039837654125588  0.0000
  O1     O1        0.119295383339726    0.156099730977540    0.383024061767962  0.0000
  O1     O1        0.385801026339263    0.852381679058473    0.381578664830716  0.0000
  O1     O1        0.877963114071040    0.123247819881452    0.650957171732494  0.0000
  O1     O1        0.622204261475136    0.891103830051166    0.661780178315871  0.0000
  O1     O1        0.920193996236433    0.781075603996427    0.648720655902169  0.0000
  O1     O1        0.578958032427443    0.228504062943741    0.643216083732661  0.0000
  O1     O1        0.093977778134165    0.802825902575479    0.384848857855402  0.0000
  O1     O1        0.413460584712837    0.203127761291304    0.364435238741991  0.0000
  O1     O1        0.980355091798318    0.019508340040474    0.476877873152632  0.0000
  O1     O1        0.526936220344069    0.992309463382362    0.467314021721645  0.0000
  O1     O1        0.020103722656088    0.024364467441635    0.217622354227295  0.0000
  O1     O1        0.486321712114749    0.958918151387120    0.211768413641994  0.0000
  O3     O3        0.031470564556881    0.010781497092658    0.725253331800999  0.0000
  O1     O1        0.465794091686800    0.988523090019987    0.707226668725080  0.0000
  O1     O1        0.585810680385733    0.202721248014002    0.122979899451452  0.0000
  O1     O1        0.916570426094253    0.775494931756624    0.129520974998129  0.0000
  O1     O1        0.400316951959012    0.224113587372006    0.867775878552001  0.0000
  O2     O2        0.117300873762578    0.864716512128331    0.906191304627885  0.0000
  O3     O3        0.359436769276413    0.887648098454383    0.896819410294162  0.0000
  O3     O3        0.102968965936946    0.194320221617156    0.880424279037184  0.0000
  O3     O3        0.627666276193763    0.857109666869859    0.115362317116290  0.0000
  O1     O1        0.875586313122803    0.110769139665853    0.128694874616752  0.0000
  O1     O1        0.513662416208382    0.983224500115168    0.951341811779829  0.0000
  O3     O3        0.984936128711523    0.007260649906105    0.957143110243260  0.0000
  O1     O1        0.161345318791531    0.489935324332964    0.334273712796767  0.0000
  O1     O1        0.344462712706599    0.520417824007429    0.324627795989106  0.0000
  O1     O1        0.843258931667773    0.472382429610019    0.675404618188922  0.0000
  O1     O1        0.654887541685873    0.538487229726911    0.674512999620094  0.0000
  O1     O1        0.262074078400933    0.227115922005082    0.276846354153274  0.0000
  O1     O1        0.241308928956908    0.790727633112247    0.291514874325978  0.0000
  O1     O1        0.732405593158368    0.232109046466345    0.727757075690129  0.0000
  O1     O1        0.767552071251772    0.776770443879392    0.725495067215479  0.0000
  O1     O1        0.132854334227082    0.285093939345658    0.128710792213822  0.0000
  O3     O3        0.367697206316089    0.752758857811679    0.125634539227582  0.0000
  O1     O1        0.861168235386802    0.263395614422179    0.887359035623697  0.0000
  O3     O3        0.646429998565398    0.716602461623351    0.893983675191186  0.0000
  O1     O1        0.882054165793209    0.660014077698398    0.890051068674266  0.0000
  O1     O1        0.612193821330258    0.332378919823567    0.883476319491578  0.0000
  O3     O3        0.116745125205983    0.717019360199894    0.132396061075523  0.0000
  O1     O1        0.379308451068904    0.309473069571105    0.116637944487935  0.0000
  O3     O3        0.655596432985139    0.529290425670071    0.096523220949684  0.0000
  O1     O1        0.848051724063474    0.458282789645509    0.104117295220343  0.0000
  O3     O3        0.358150307755208    0.557175589625634    0.925936265562366  0.0000
  O3     O3        0.133576261030842    0.531085202216088    0.931710561995124  0.0000
  O1     O1        0.733541461146655    0.231310557177922    0.036266283359738  0.0000
  O3     O3        0.762899471779004    0.754127796363941    0.047018538866235  0.0000
  O1     O1        0.252125661466895    0.287056049845541    0.952395782622124  0.0000
  O2     O2        0.242029986031337    0.724003682008605    0.008526331577086  0.0000
