data_c00253.vasp
_audit_creation_method             Generated by GULP
_audit_author_name                 Salvador R. G. Balestra
_symmetry_space_group_name_H-M     'P 1             '
_symmetry_Int_Tables_number        1

loop_
_symmetry_equiv_pos_site_id
_symmetry_equiv_pos_as_xyz
_cell_length_a                       17.5334
_cell_length_b                        7.8545
_cell_length_c                       10.3468
_cell_angle_alpha                   90.5305
_cell_angle_beta                    90.5911
_cell_angle_gamma                   88.2183

loop_
_atom_site_label
_atom_site_type_symbol
_atom_site_fract_x
_atom_site_fract_y
_atom_site_fract_z
_atom_site_charge
  Ge     Ge        0.052090000000021    0.000000000000000    0.372269999999958  0.0000
  Ge     Ge        0.454206272850460    0.934190991926820    0.360695712772826  0.0000
  Ge     Ge        0.951504173982977    0.943366370617828    0.629374811989641  0.0000
  Ge     Ge        0.552780130116121    0.997012279064842    0.617682920449153  0.0000
  Ge     Ge        0.552866418615587    0.992831287794593    0.101903558965689  0.0000
  Ge     Ge        0.950344131935247    0.950254899555349    0.109664589362087  0.0000
  Ge     Ge        0.441733635399453    0.932194454325414    0.854398943789572  0.0000
  Ge     Ge        0.150353926605705    0.305945435777169    0.294909153056241  0.0000
  Ge     Ge        0.353701833640757    0.625355190707346    0.286007403230368  0.0000
  Ge     Ge        0.827617187121966    0.233024999560136    0.736897777629005  0.0000
  Ge     Ge        0.676412287780559    0.708595661159669    0.736122365961227  0.0000
  Ge     Ge        0.859244006000993    0.631433263349282    0.737118969127614  0.0000
  Ge     Ge        0.644795186817575    0.309441474024499    0.732032367040170  0.0000
  Ge     Ge        0.173018216063650    0.710146785827544    0.288531643831095  0.0000
  Ge     Ge        0.330093010920681    0.221234936437026    0.288224964661919  0.0000
  Ge     Ge        0.650312152449445    0.310184213623605    0.045425058229840  0.0000
  Ge     Ge        0.852929536821170    0.631530537793369    0.049662989363991  0.0000
  Ge     Ge        0.325335919248041    0.219935919588410    0.976004853529297  0.0000
  Ge     Ge        0.166861424535321    0.691412656731281    0.976677502059287  0.0000
  Ge     Ge        0.352036604381518    0.618060337820787    0.971233646181927  0.0000
  Si     Si        0.057149237241861    0.989678708152544    0.869460281439401  0.0000
  Si     Si        0.144846841168743    0.297667730691966    0.989694786754977  0.0000
  Si     Si        0.672971224978421    0.700489100680378    0.042696438477119  0.0000
  Si     Si        0.830099505193726    0.241674445880193    0.044544600234895  0.0000
  O1     O1        0.087584712995367    0.200552940334909    0.388189560813486  0.0000
  O1     O1        0.418018035858356    0.735220498706316    0.377436759643612  0.0000
  O1     O1        0.873234961616461    0.073870300624143    0.653237121680042  0.0000
  O1     O1        0.630120551405225    0.868122425856680    0.654785795401212  0.0000
  O1     O1        0.926548449940271    0.737344167751117    0.652713761734248  0.0000
  O1     O1        0.577289285001616    0.203976495939216    0.644058940653110  0.0000
  O1     O1        0.124798600719225    0.848921176007538    0.388242285014152  0.0000
  O1     O1        0.382378283768734    0.085844503652095    0.384519613696000  0.0000
  O1     O1        0.978006754057778    0.964549886176431    0.470823531490293  0.0000
  O1     O1        0.531461832010074    0.969111144312693    0.455952612391457  0.0000
  O1     O1        0.022838002284199    0.987757438978525    0.212294951486360  0.0000
  O1     O1        0.479771201189273    0.950131166677379    0.200179727111681  0.0000
  O3     O3        0.029734430871594    0.002939994099777    0.721512611969160  0.0000
  O1     O1        0.471288998302092    0.944190239703423    0.697157340818944  0.0000
  O1     O1        0.591162964737442    0.189061445020576    0.133672261658546  0.0000
  O1     O1        0.911343182737174    0.755520810411506    0.140201946719559  0.0000
  O1     O1        0.362015364942331    0.060724379731782    0.880637050190522  0.0000
  O3     O3        0.121562117986967    0.840470800851938    0.879099414020989  0.0000
  O1     O1        0.416818040081854    0.726693449434156    0.884517743862582  0.0000
  O2     O2        0.087224125405684    0.174294567843106    0.913960677087220  0.0000
  O3     O3        0.626858378502557    0.842520949719610    0.122935085803937  0.0000
  O3     O3        0.876506300368093    0.101219035002861    0.125760695916266  0.0000
  O1     O1        0.518276687420388    0.994780843570063    0.945679333040120  0.0000
  O3     O3        0.983687265159800    0.944150137339787    0.952158740810386  0.0000
  O1     O1        0.162928610099589    0.507713690560246    0.349505726409258  0.0000
  O1     O1        0.341291589988566    0.426954635030316    0.345055277073070  0.0000
  O1     O1        0.848094188986350    0.429960829091287    0.676400821253576  0.0000
  O1     O1        0.655538642592857    0.510930981352046    0.673872714557866  0.0000
  O1     O1        0.234248358348880    0.185660021970121    0.293906489567104  0.0000
  O1     O1        0.268907736407543    0.744172852452451    0.283108770904909  0.0000
  O1     O1        0.731899983376962    0.201996831571029    0.726033930729194  0.0000
  O1     O1        0.772046243162293    0.739562775673039    0.729355427931505  0.0000
  O3     O3        0.117428221620942    0.324489881337474    0.135819516994435  0.0000
  O1     O1        0.383392415974780    0.605423471620091    0.128524842267079  0.0000
  O3     O3        0.858168948671155    0.235927876222292    0.896757592546091  0.0000
  O3     O3        0.644076944746693    0.705680586510603    0.894134284151155  0.0000
  O1     O1        0.887611468893991    0.624589611207159    0.895752339828988  0.0000
  O1     O1        0.616047456234594    0.314688353109423    0.889967157515540  0.0000
  O1     O1        0.137125585478577    0.722062483381503    0.132435787731812  0.0000
  O1     O1        0.361367143336574    0.203405857191631    0.130732571660568  0.0000
  O3     O3        0.656523803594131    0.515934214571580    0.103087119935493  0.0000
  O3     O3        0.846049287536566    0.427218123600082    0.106784018748451  0.0000
  O1     O1        0.346039136319992    0.413835229936645    0.912191640398995  0.0000
  O3     O3        0.148076461476279    0.483431966425460    0.925927493505526  0.0000
  O3     O3        0.740196965169952    0.211491394021611    0.044840084231187  0.0000
  O3     O3        0.762838150264843    0.729462487622613    0.044513385614149  0.0000
  O3     O3        0.227663316166314    0.205155562814444    0.989637880024162  0.0000
  O1     O1        0.263064438454855    0.717496731175222    0.967119203000099  0.0000
