data_c00206.vasp
_audit_creation_method             Generated by GULP
_audit_author_name                 Salvador R. G. Balestra
_symmetry_space_group_name_H-M     'P 1             '
_symmetry_Int_Tables_number        1

loop_
_symmetry_equiv_pos_site_id
_symmetry_equiv_pos_as_xyz
_cell_length_a                       17.5650
_cell_length_b                        7.8592
_cell_length_c                       10.2482
_cell_angle_alpha                   88.7494
_cell_angle_beta                    89.4487
_cell_angle_gamma                   92.1318

loop_
_atom_site_label
_atom_site_type_symbol
_atom_site_fract_x
_atom_site_fract_y
_atom_site_fract_z
_atom_site_charge
  Ge     Ge        0.052090000000021    0.000000000000000    0.372269999999958  0.0000
  Ge     Ge        0.451276987749199    0.054063565681668    0.370014108068260  0.0000
  Ge     Ge        0.949431225036240    0.077344565757630    0.621462911924161  0.0000
  Ge     Ge        0.560228558294782    0.024171930886524    0.616462832783091  0.0000
  Ge     Ge        0.548815167279764    0.999382509925408    0.108071749420109  0.0000
  Ge     Ge        0.955084535871531    0.065228366839835    0.112334188147972  0.0000
  Ge     Ge        0.443834352831581    0.062157707801018    0.856493350307451  0.0000
  Ge     Ge        0.062639230497764    0.018336132253782    0.860020270065896  0.0000
  Ge     Ge        0.174861319148252    0.288737727890989    0.290019218176270  0.0000
  Ge     Ge        0.329252432970248    0.770344919945964    0.288093592333817  0.0000
  Ge     Ge        0.859737223770396    0.395304719879232    0.727173280921709  0.0000
  Ge     Ge        0.674788090043834    0.325432415205410    0.722845316833078  0.0000
  Ge     Ge        0.147942956703320    0.692820893786752    0.292821949889162  0.0000
  Ge     Ge        0.356169470982150    0.365576640295845    0.291069147033797  0.0000
  Ge     Ge        0.674060241159600    0.290552808128202    0.037759159624282  0.0000
  Ge     Ge        0.829451009864094    0.775136014241662    0.050530134595838  0.0000
  Ge     Ge        0.355877121701043    0.377655943497204    0.977605847629970  0.0000
  Ge     Ge        0.149851365230056    0.696143578497940    0.979429931489752  0.0000
  Ge     Ge        0.650330372882375    0.693741979167729    0.047761203667416  0.0000
  Ge     Ge        0.855537930787697    0.374555915191410    0.043204426447384  0.0000
  Si     Si        0.656261642889489    0.715912909603850    0.736859309949650  0.0000
  Si     Si        0.833862712179099    0.784093705195394    0.740489943865061  0.0000
  Si     Si        0.331429261600987    0.769488155839035    0.979764332183830  0.0000
  Si     Si        0.174251678970516    0.304617458932077    0.981660847222603  0.0000
  O1     O1        0.125204617797921    0.149374823134918    0.391279837579828  0.0000
  O1     O1        0.377782031829942    0.903968024934565    0.389065097781995  0.0000
  O1     O1        0.922514640460920    0.283442592531597    0.635791811193262  0.0000
  O3     O3        0.601597306612423    0.834916593228193    0.656208724322195  0.0000
  O3     O3        0.872202274485494    0.944243485706833    0.664555691846660  0.0000
  O1     O1        0.625223477724784    0.190288357688533    0.623436719279910  0.0000
  O1     O1        0.085910227947121    0.799220713039954    0.390131598272070  0.0000
  O1     O1        0.417236141226862    0.254163003673207    0.388043828651707  0.0000
  O1     O1        0.972675411716422    0.038246484289724    0.461371763032568  0.0000
  O1     O1        0.530559823979360    0.013326585890234    0.456479283694214  0.0000
  O1     O1        0.029653011045540    0.025493022056731    0.208738652903672  0.0000
  O1     O1        0.474267485692404    0.037831184946247    0.205672781030551  0.0000
  O1     O1        0.032615948999698    0.037459231205915    0.701422519466616  0.0000
  O1     O1        0.475770512099300    0.051831140649419    0.697985831047905  0.0000
  O1     O1        0.624364985079953    0.142857042511055    0.130652067702126  0.0000
  O1     O1        0.882054687098115    0.914133444095896    0.139134688964698  0.0000
  O1     O1        0.412348774782891    0.264933121732206    0.878216990200101  0.0000
  O1     O1        0.093592645588264    0.814300821130769    0.881349806653970  0.0000
  O3     O3        0.368890516855619    0.917914549079361    0.888665322816176  0.0000
  O3     O3        0.137283338596792    0.160501534572687    0.892151154314842  0.0000
  O1     O1        0.581639181925620    0.796648235122507    0.129932308376300  0.0000
  O1     O1        0.917928742624029    0.261946546898171    0.134886090021886  0.0000
  O1     O1        0.521854045804430    0.021364506242846    0.947442136454876  0.0000
  O1     O1        0.983708518109612    0.056018067627852    0.951289111817508  0.0000
  O1     O1        0.160363346465811    0.490436831177501    0.347559461755790  0.0000
  O1     O1        0.343111960344836    0.565170572706301    0.345094951827742  0.0000
  O3     O3        0.856084921569664    0.607617133863136    0.675292491049326  0.0000
  O3     O3        0.658858016890750    0.533385587262191    0.671307808337610  0.0000
  O1     O1        0.269862101889944    0.252047218059355    0.291594265445693  0.0000
  O1     O1        0.234070634110070    0.806617084966720    0.291364915223423  0.0000
  O1     O1        0.770832140479388    0.298898522396057    0.714811173153245  0.0000
  O2     O2        0.742079395785318    0.800571512980324    0.741754621371167  0.0000
  O3     O3        0.142273794226539    0.285183023255802    0.129524892329642  0.0000
  O3     O3        0.362648084500319    0.782925892169284    0.126879907634166  0.0000
  O1     O1        0.889763807303333    0.391288052099394    0.885110336928533  0.0000
  O3     O3        0.625911943649449    0.689182517491315    0.883662005363816  0.0000
  O3     O3        0.861383022415759    0.782166785038297    0.889110220472976  0.0000
  O1     O1        0.642131282760766    0.286354734935004    0.878921128413571  0.0000
  O1     O1        0.113989210518201    0.692537376024238    0.135296502032011  0.0000
  O1     O1        0.390878338144749    0.373260228284418    0.132809324349634  0.0000
  O1     O1        0.659759812809325    0.489906717311262    0.101169015918770  0.0000
  O1     O1        0.842441348241741    0.569364332183613    0.106896789229702  0.0000
  O3     O3        0.352291535348967    0.587171575032402    0.922645426753460  0.0000
  O3     O3        0.153581191630161    0.489910914917842    0.924148775993557  0.0000
  O1     O1        0.769884829402040    0.259804194881070    0.035853500276417  0.0000
  O1     O1        0.734543787623072    0.811650965863225    0.061031951130247  0.0000
  O3     O3        0.264670668491849    0.287330203462059    0.984735475992888  0.0000
  O3     O3        0.240939289492896    0.786325675141186    0.984656798838952  0.0000
