data_c00277.vasp
_audit_creation_method             Generated by GULP
_audit_author_name                 Salvador R. G. Balestra
_symmetry_space_group_name_H-M     'P 1             '
_symmetry_Int_Tables_number        1

loop_
_symmetry_equiv_pos_site_id
_symmetry_equiv_pos_as_xyz
_cell_length_a                       17.5032
_cell_length_b                        7.9178
_cell_length_c                       10.4527
_cell_angle_alpha                   91.0773
_cell_angle_beta                    90.5834
_cell_angle_gamma                   90.9116

loop_
_atom_site_label
_atom_site_type_symbol
_atom_site_fract_x
_atom_site_fract_y
_atom_site_fract_z
_atom_site_charge
  Ge     Ge        0.052090000000021    0.000000000000000    0.372269999999958  0.0000
  Ge     Ge        0.451529631270629    0.047667596463376    0.368669590321828  0.0000
  Ge     Ge        0.953331500858309    0.052199880574893    0.630094799845167  0.0000
  Ge     Ge        0.548950016742841    0.022770670166999    0.630604722150131  0.0000
  Ge     Ge        0.564058572133413    0.034639491641644    0.133779554076424  0.0000
  Ge     Ge        0.943152735456165    0.059838867626067    0.125682694535653  0.0000
  Ge     Ge        0.446838544063991    0.046305286634292    0.889677995793511  0.0000
  Ge     Ge        0.172900944787024    0.288215797321555    0.262265455657881  0.0000
  Ge     Ge        0.330510906286756    0.757361056319226    0.258900981133902  0.0000
  Ge     Ge        0.851550194580925    0.361472294876581    0.711052896092581  0.0000
  Ge     Ge        0.652099229995955    0.720679975457411    0.706442132152273  0.0000
  Ge     Ge        0.833872674991816    0.766806319463581    0.703878482193963  0.0000
  Ge     Ge        0.668713785472082    0.310436006381479    0.716217706953497  0.0000
  Ge     Ge        0.147720077192094    0.687363982084739    0.261153882981896  0.0000
  Ge     Ge        0.354098498300523    0.357157271497202    0.254362642642490  0.0000
  Ge     Ge        0.666377711645073    0.344421363017292    0.027287894279671  0.0000
  Ge     Ge        0.145083554931639    0.688358749358796    0.949269151009262  0.0000
  Ge     Ge        0.329685722691424    0.746658010372079    0.949583726058111  0.0000
  Ge     Ge        0.164648035370797    0.291519391026552    0.951821283582794  0.0000
  Ge     Ge        0.855159913628023    0.384289936746549    0.022793764074893  0.0000
  Si     Si        0.049208867225749    0.998537900589019    0.884967816338984  0.0000
  Si     Si        0.840097405105470    0.767818843930947    0.001122514151194  0.0000
  Si     Si        0.344579509065521    0.355516172075172    0.949214080613706  0.0000
  Si     Si        0.657702945994093    0.731409067220173    0.003139553390897  0.0000
  O1     O1        0.125672205157480    0.140015039305882    0.348042120734267  0.0000
  O1     O1        0.377802027247287    0.905345502250572    0.351789457792329  0.0000
  O1     O1        0.912352649803913    0.246509860494525    0.617488994477130  0.0000
  O1     O1        0.588640864562501    0.826499571822438    0.613065534441003  0.0000
  O1     O1        0.885355986910057    0.895603240883179    0.606757515380153  0.0000
  O1     O1        0.618295421721440    0.177588031276551    0.615712728109338  0.0000
  O1     O1        0.082316589586423    0.797552425285994    0.348227610837078  0.0000
  O1     O1        0.425327474298663    0.247418013490224    0.325073524631327  0.0000
  O1     O1        0.027818057696267    0.026717444102324    0.530427790352910  0.0000
  O1     O1        0.474260366723350    0.050248441972628    0.529371842147789  0.0000
  O1     O1        0.971926884764179    0.036476069436418    0.280929708446645  0.0000
  O1     O1        0.532755644294981    0.997409124147703    0.286080228555201  0.0000
  O3     O3        0.981406406707172    0.037151881253114    0.789776753686704  0.0000
  O1     O1        0.520533791572031    0.042360116570265    0.787565771021816  0.0000
  O1     O1        0.614887061442772    0.220763588268007    0.128191100456673  0.0000
  O3     O3        0.865205070669997    0.927625666230648    0.087362160979407  0.0000
  O3     O3        0.401140477459688    0.238350076329817    0.870811584080806  0.0000
  O3     O3        0.082632312265615    0.812056777350695    0.863782231572756  0.0000
  O1     O1        0.382239172520736    0.883006825846752    0.859886253567367  0.0000
  O3     O3        0.117705360505099    0.135114686112651    0.865127531715283  0.0000
  O3     O3        0.628384206949530    0.878635158658616    0.093559754936956  0.0000
  O1     O1        0.914669206310454    0.264537416814981    0.113263350352401  0.0000
  O1     O1        0.482007270806071    0.033289479178248    0.043443105158543  0.0000
  O3     O3        0.020622337480193    0.013028342552407    0.031519588502475  0.0000
  O1     O1        0.159647793711392    0.490091338389747    0.322158328028010  0.0000
  O1     O1        0.346441691051189    0.557815375471020    0.316406068470042  0.0000
  O1     O1        0.842677697173827    0.560180463321404    0.652980039600599  0.0000
  O1     O1        0.658358424917947    0.513871644971309    0.662574129554341  0.0000
  O1     O1        0.268960139589269    0.247966101217351    0.267557399708871  0.0000
  O1     O1        0.234298446815364    0.793730111511197    0.261500184084305  0.0000
  O1     O1        0.763568937854548    0.261619129572087    0.713931674540666  0.0000
  O1     O1        0.739741926805259    0.820110470750611    0.694958115013805  0.0000
  O1     O1        0.137155806731343    0.283874355234186    0.108604975484650  0.0000
  O1     O1        0.362248038944694    0.771647868741964    0.104461261152029  0.0000
  O1     O1        0.883462957566184    0.367156177179048    0.867156090070946  0.0000
  O3     O3        0.618884154429002    0.737233458280099    0.863712930740834  0.0000
  O3     O3        0.872180253564464    0.785712240702267    0.858722244943626  0.0000
  O1     O1        0.638512700384824    0.298738485621897    0.872469898443197  0.0000
  O1     O1        0.116735836303114    0.670531887809619    0.104987329985418  0.0000
  O3     O3        0.374698252714473    0.382226442606245    0.094290291234838  0.0000
  O3     O3        0.642777850090143    0.551596604043269    0.066121554460707  0.0000
  O3     O3        0.867045018731688    0.596696481043152    0.067009929105694  0.0000
  O3     O3        0.338500061345541    0.540461034198220    0.890219267191560  0.0000
  O1     O1        0.146371496973807    0.485886872607871    0.887875466822562  0.0000
  O1     O1        0.762742652381676    0.315887224336724    0.043952765245250  0.0000
  O2     O2        0.748781046229585    0.746040020705095    0.976163532223073  0.0000
  O3     O3        0.262214707283141    0.261585740185511    0.951969451373242  0.0000
  O1     O1        0.233657759465852    0.785129437165985    0.945718460419631  0.0000
