data_c00258.vasp
_audit_creation_method             Generated by GULP
_audit_author_name                 Salvador R. G. Balestra
_symmetry_space_group_name_H-M     'P 1             '
_symmetry_Int_Tables_number        1

loop_
_symmetry_equiv_pos_site_id
_symmetry_equiv_pos_as_xyz
_cell_length_a                       17.5951
_cell_length_b                        7.7919
_cell_length_c                       10.4024
_cell_angle_alpha                   89.3370
_cell_angle_beta                    90.8020
_cell_angle_gamma                   91.2861

loop_
_atom_site_label
_atom_site_type_symbol
_atom_site_fract_x
_atom_site_fract_y
_atom_site_fract_z
_atom_site_charge
  Ge     Ge        0.052090000000021    0.000000000000000    0.372269999999958  0.0000
  Ge     Ge        0.449504236368365    0.049651290940699    0.397952326468955  0.0000
  Ge     Ge        0.954052405291243    0.054477532903474    0.631752760538088  0.0000
  Ge     Ge        0.549982882184264    0.995967892306611    0.656065079019813  0.0000
  Ge     Ge        0.554896202797208    0.992397126695004    0.155430969512447  0.0000
  Ge     Ge        0.951027552076493    0.053509584008743    0.109289998484319  0.0000
  Ge     Ge        0.446589534382827    0.064890913331255    0.907881622702005  0.0000
  Ge     Ge        0.176204988908863    0.278210684960734    0.287764730549081  0.0000
  Ge     Ge        0.326406424507340    0.766166963525178    0.289727655696473  0.0000
  Ge     Ge        0.855934442891269    0.363410041426285    0.738290381954449  0.0000
  Ge     Ge        0.649658235840246    0.680094309079964    0.725007424667960  0.0000
  Ge     Ge        0.828877770376551    0.768102573565042    0.734501424472005  0.0000
  Ge     Ge        0.677103528160431    0.275231849063771    0.730673800233383  0.0000
  Ge     Ge        0.146040096670471    0.686041221785163    0.292951337979638  0.0000
  Ge     Ge        0.354533857431682    0.362600453791937    0.278301018460700  0.0000
  Ge     Ge        0.675550537201125    0.277052069843032    0.043003604785782  0.0000
  Ge     Ge        0.828197969330983    0.760134130692271    0.046927777827687  0.0000
  Ge     Ge        0.343631737943536    0.376256028343762    0.960192761658630  0.0000
  Ge     Ge        0.325479304819867    0.771892241680915    0.981591945714283  0.0000
  Ge     Ge        0.647255548981003    0.679563434353336    0.040568133619206  0.0000
  Si     Si        0.058186155576892    0.007660407578885    0.872349188653853  0.0000
  Si     Si        0.144874308928849    0.697448378468451    0.994081545757274  0.0000
  Si     Si        0.166261479808191    0.303585891314159    0.980306465362956  0.0000
  Si     Si        0.851785299081843    0.365137187788676    0.043944963187740  0.0000
  O1     O1        0.129789685113300    0.137588928017422    0.386167063430548  0.0000
  O1     O1        0.372967797067641    0.912481187996572    0.384716432434780  0.0000
  O1     O1        0.926983639190422    0.259044725375995    0.663857254966979  0.0000
  O1     O1        0.582097800198814    0.790987173729801    0.639522706178877  0.0000
  O1     O1        0.878766310000099    0.914239939838698    0.643844172087910  0.0000
  O1     O1        0.626115164363336    0.135561367854129    0.636514138312630  0.0000
  O1     O1        0.082135235985539    0.792181025738341    0.384230073361494  0.0000
  O1     O1        0.426679359895105    0.254920756957342    0.352661605864951  0.0000
  O1     O1        0.981400795615799    0.045068198212465    0.473854897684999  0.0000
  O1     O1        0.475852277209388    0.046179369772099    0.558146379523863  0.0000
  O1     O1        0.023679706349479    0.037473620799866    0.214832822780158  0.0000
  O1     O1        0.526779069602268    0.986624674791722    0.312755617923271  0.0000
  O3     O3        0.033583963804575    0.002197996853098    0.723922544726065  0.0000
  O1     O1        0.519738487741432    0.014184549176648    0.813379950378029  0.0000
  O1     O1        0.634484215138991    0.122191250050420    0.137445055862258  0.0000
  O1     O1        0.881762041110181    0.898421026347648    0.138486552892890  0.0000
  O1     O1        0.407968945823983    0.262997567083814    0.877103832147475  0.0000
  O2     O2        0.093751829302228    0.821560710374651    0.904628405821595  0.0000
  O1     O1        0.368742643903269    0.927173365402908    0.891948245688865  0.0000
  O2     O2        0.117329587222668    0.167157778790004    0.895897334437034  0.0000
  O1     O1        0.576960035922313    0.786322258529592    0.115152350216764  0.0000
  O3     O3        0.912267629560728    0.255778679227330    0.123290105555869  0.0000
  O1     O1        0.480196181352680    0.066518499453011    0.064501748753649  0.0000
  O3     O3        0.982498193137481    0.034266271036164    0.952450908195682  0.0000
  O1     O1        0.159714423597313    0.481963132475894    0.344313582509480  0.0000
  O1     O1        0.342780362648013    0.560274382748315    0.344540544049047  0.0000
  O1     O1        0.843377833092345    0.564820751104194    0.676175451420529  0.0000
  O1     O1        0.663336987041188    0.479455608526985    0.668256868132199  0.0000
  O1     O1        0.271525420134736    0.241713292238862    0.292089963309122  0.0000
  O1     O1        0.230759227063999    0.800544580893271    0.294290930016757  0.0000
  O1     O1        0.773103151065158    0.241500285153592    0.727035076608039  0.0000
  O1     O1        0.732859181702108    0.801578163887387    0.725106177978854  0.0000
  O3     O3        0.145277862031237    0.274914343998428    0.127951875421977  0.0000
  O1     O1        0.361325381946252    0.788565566461356    0.136078774859747  0.0000
  O3     O3        0.878884931778659    0.396119939037570    0.898318464091185  0.0000
  O1     O1        0.622180558847928    0.655653870059260    0.882079278587583  0.0000
  O1     O1        0.857935800735161    0.787436078854827    0.891579347910873  0.0000
  O1     O1        0.644324644598937    0.257683805452344    0.886079878787990  0.0000
  O3     O3        0.110457465647702    0.686765174596489    0.134974068951408  0.0000
  O1     O1        0.371941687665386    0.394594808752136    0.118437614980579  0.0000
  O1     O1        0.655238711449857    0.475488036031710    0.102464617498748  0.0000
  O3     O3        0.839583278261103    0.550450987904652    0.104132697567707  0.0000
  O1     O1        0.341546501173305    0.582208139602601    0.904613645938187  0.0000
  O2     O2        0.148195158062780    0.502464832543555    0.938307601395390  0.0000
  O3     O3        0.773078140701055    0.254524467912342    0.039527101366964  0.0000
  O1     O1        0.732256483904517    0.793497879366264    0.053520570440229  0.0000
  O3     O3        0.254589354881942    0.273773563406458    0.956980651010193  0.0000
  O3     O3        0.228415723309694    0.782072365804956    0.001991663804892  0.0000
