data_c00207.vasp
_audit_creation_method             Generated by GULP
_audit_author_name                 Salvador R. G. Balestra
_symmetry_space_group_name_H-M     'P 1             '
_symmetry_Int_Tables_number        1

loop_
_symmetry_equiv_pos_site_id
_symmetry_equiv_pos_as_xyz
_cell_length_a                       17.6735
_cell_length_b                        7.9409
_cell_length_c                       10.2122
_cell_angle_alpha                   87.8927
_cell_angle_beta                    90.5388
_cell_angle_gamma                   88.8950

loop_
_atom_site_label
_atom_site_type_symbol
_atom_site_fract_x
_atom_site_fract_y
_atom_site_fract_z
_atom_site_charge
  Ge     Ge        0.052090000000021    0.000000000000000    0.372269999999958  0.0000
  Ge     Ge        0.451447912447361    0.961375460371011    0.374292346815985  0.0000
  Ge     Ge        0.944970324384411    0.002055343785357    0.621128745107713  0.0000
  Ge     Ge        0.561271956840858    0.017451742715198    0.617958817422139  0.0000
  Ge     Ge        0.551204753453298    0.994790643425188    0.115204913132313  0.0000
  Ge     Ge        0.950911732906754    0.978874171541317    0.109496141866721  0.0000
  Ge     Ge        0.445185084315937    0.980913589672505    0.858475811352017  0.0000
  Ge     Ge        0.060566612756870    0.012807378368463    0.862477344013786  0.0000
  Ge     Ge        0.150795833856571    0.311311723632178    0.297023325488848  0.0000
  Ge     Ge        0.352469640177848    0.654774108423734    0.299291086408203  0.0000
  Ge     Ge        0.843965129075575    0.316664582892119    0.724473382558011  0.0000
  Ge     Ge        0.657714952260554    0.327992931145001    0.721866757321476  0.0000
  Ge     Ge        0.171511891799180    0.713912257666153    0.295610487886178  0.0000
  Ge     Ge        0.332853078390680    0.252363197210466    0.296633982571980  0.0000
  Ge     Ge        0.662595939482082    0.290415139810274    0.040742605933913  0.0000
  Ge     Ge        0.843952741540195    0.680148346610627    0.051170755968110  0.0000
  Ge     Ge        0.331119813597282    0.265575354218051    0.979232291162139  0.0000
  Ge     Ge        0.351786632475697    0.663601712961982    0.981725241010073  0.0000
  Ge     Ge        0.147727859443516    0.328615262237225    0.981646330514971  0.0000
  Ge     Ge        0.662569425895984    0.692834196871436    0.052809848032056  0.0000
  Si     Si        0.663572078477960    0.714455219430025    0.746759751950865  0.0000
  Si     Si        0.844707609149797    0.702923395468808    0.747254485342416  0.0000
  Si     Si        0.171630792032457    0.721141097239392    0.985311063918596  0.0000
  Si     Si        0.841413555029684    0.282205100317976    0.035934895036975  0.0000
  O1     O1        0.092748237578525    0.191689873908060    0.395007696495355  0.0000
  O1     O1        0.413691930900667    0.765012946687321    0.394085399571591  0.0000
  O1     O1        0.901607737570019    0.195729502185590    0.632256951595528  0.0000
  O3     O3        0.632943185414612    0.873956412726790    0.662440490050674  0.0000
  O3     O3        0.877529265666735    0.853652616159336    0.659754680836757  0.0000
  O1     O1        0.599005350260156    0.213516371630668    0.626548062204937  0.0000
  O1     O1        0.119960117828554    0.842259053199266    0.392459080247963  0.0000
  O1     O1        0.382678565586358    0.113491782501284    0.398170475266727  0.0000
  O1     O1        0.972239051689403    0.972951749919318    0.461889011639903  0.0000
  O1     O1        0.533871171020517    0.985123125905486    0.458923271721769  0.0000
  O1     O1        0.027304064673877    0.993888682569499    0.208386570939513  0.0000
  O1     O1        0.473661709621148    0.992902567859085    0.210173079860424  0.0000
  O1     O1        0.029894002949275    0.990798199298037    0.703610456965147  0.0000
  O1     O1        0.477986286924918    0.992422522795607    0.700276154825146  0.0000
  O1     O1        0.611374191669316    0.159705129390401    0.138737638364761  0.0000
  O1     O1        0.902008663085521    0.796831039722960    0.144557111511415  0.0000
  O1     O1        0.372920139839879    0.124135601972935    0.879571206140570  0.0000
  O3     O3        0.133165782810733    0.868282737685844    0.895341007284330  0.0000
  O1     O1        0.410978433886058    0.782230679582168    0.887881589867258  0.0000
  O1     O1        0.089884631381119    0.215685382670420    0.883877246143458  0.0000
  O1     O1        0.603213000946392    0.811386634636987    0.143122058434882  0.0000
  O3     O3        0.891266228532686    0.154150731177152    0.125452567498009  0.0000
  O1     O1        0.521708705029095    0.021351954511903    0.954517977493599  0.0000
  O1     O1        0.981232776833666    0.973333606231327    0.951015851739264  0.0000
  O1     O1        0.160175477025883    0.509167034554249    0.353349736483942  0.0000
  O1     O1        0.344005722047214    0.451610530803224    0.355785525649071  0.0000
  O3     O3        0.860360375553440    0.526411705060923    0.680459654453588  0.0000
  O3     O3        0.644824640205144    0.541182959511403    0.678518147793421  0.0000
  O1     O1        0.238165767199929    0.210713466574451    0.293611917177357  0.0000
  O1     O1        0.265711534883071    0.758463211093731    0.301257922209085  0.0000
  O1     O1        0.750824638262673    0.270279068977951    0.700170574805338  0.0000
  O2     O2        0.754177765348908    0.719488734638848    0.769676299375424  0.0000
  O1     O1        0.114984580977972    0.322253298936703    0.139012181337471  0.0000
  O1     O1        0.384834529901314    0.654675795077341    0.140574939591147  0.0000
  O3     O3        0.871213787280443    0.285854008454163    0.886992024134183  0.0000
  O3     O3        0.628923405048518    0.715794862215753    0.891333609100905  0.0000
  O3     O3        0.878937731205417    0.703640740538678    0.892727636694578  0.0000
  O1     O1        0.630472083962970    0.296625860592143    0.881048821135751  0.0000
  O3     O3        0.140381295903724    0.726775138890522    0.132883028325145  0.0000
  O1     O1        0.365001193233421    0.248096397654580    0.137632694251617  0.0000
  O1     O1        0.657843463562171    0.486452242147367    0.104044079165136  0.0000
  O3     O3        0.844376897738162    0.467766164667373    0.094544736879800  0.0000
  O1     O1        0.348862634560244    0.466947792626476    0.920255684573863  0.0000
  O3     O3        0.154197379578034    0.538509495120338    0.928487642207418  0.0000
  O3     O3        0.755615901038585    0.220590067197737    0.032049172009237  0.0000
  O1     O1        0.753779237728880    0.758686208179375    0.066467402754104  0.0000
  O1     O1        0.235739691995847    0.234779625279185    0.980357127313713  0.0000
  O3     O3        0.261152879441175    0.750100952763564    0.988346504911905  0.0000
