data_c00201.vasp
_audit_creation_method             Generated by GULP
_audit_author_name                 Salvador R. G. Balestra
_symmetry_space_group_name_H-M     'P 1             '
_symmetry_Int_Tables_number        1

loop_
_symmetry_equiv_pos_site_id
_symmetry_equiv_pos_as_xyz
_cell_length_a                       17.8334
_cell_length_b                        7.8617
_cell_length_c                       10.3706
_cell_angle_alpha                   89.1894
_cell_angle_beta                    89.9700
_cell_angle_gamma                   89.4689

loop_
_atom_site_label
_atom_site_type_symbol
_atom_site_fract_x
_atom_site_fract_y
_atom_site_fract_z
_atom_site_charge
  Ge     Ge        0.052090000000021    0.000000000000000    0.372269999999958  0.0000
  Ge     Ge        0.455467920906101    0.957437401845906    0.409538063958688  0.0000
  Ge     Ge        0.949385694636184    0.008374164943059    0.625386693976829  0.0000
  Ge     Ge        0.559891249926596    0.991473923288482    0.663922049499504  0.0000
  Ge     Ge        0.562435721141670    0.982703857538785    0.159718972518018  0.0000
  Ge     Ge        0.948946347934549    0.000429778372660    0.112772824759656  0.0000
  Ge     Ge        0.453672658040622    0.984117389014149    0.916459269125487  0.0000
  Ge     Ge        0.059185921460272    0.013611886692818    0.867832148077346  0.0000
  Ge     Ge        0.154259255103721    0.310487596311513    0.298844858292929  0.0000
  Ge     Ge        0.354252682345364    0.653505279388421    0.304536266133947  0.0000
  Ge     Ge        0.854398562713234    0.326593746553031    0.735318977857855  0.0000
  Ge     Ge        0.672832932889781    0.282964969222031    0.730194821395262  0.0000
  Ge     Ge        0.174843444726151    0.716977859195820    0.303917954801959  0.0000
  Ge     Ge        0.333040046486905    0.248138530242415    0.293888237931243  0.0000
  Ge     Ge        0.673359209536386    0.274538196034404    0.040892324113752  0.0000
  Ge     Ge        0.831917704664757    0.713420050302916    0.048291119006167  0.0000
  Ge     Ge        0.330599853538704    0.263458027871446    0.978979967305604  0.0000
  Ge     Ge        0.177130498540676    0.731137888700478    0.991221407184388  0.0000
  Ge     Ge        0.356630366828213    0.664710661005847    0.990786260119188  0.0000
  Ge     Ge        0.151282000812458    0.325464712734923    0.983328509160684  0.0000
  Si     Si        0.662777852901356    0.680249609553202    0.736798684887352  0.0000
  Si     Si        0.836641124109253    0.724366023057143    0.741118232983599  0.0000
  Si     Si        0.656773053281702    0.674115951949659    0.040823352852904  0.0000
  Si     Si        0.851187574565457    0.315239340728563    0.041182598847348  0.0000
  O1     O1        0.092211651429258    0.195956178459445    0.390432430130252  0.0000
  O1     O1        0.418987176029515    0.758058760900263    0.395126359431348  0.0000
  O1     O1        0.916729195249830    0.212441836884893    0.646656877724633  0.0000
  O3     O3        0.608751676973270    0.799709037922398    0.654177218807476  0.0000
  O3     O3        0.878230512987722    0.867188030749427    0.659138049848598  0.0000
  O1     O1        0.621061900882283    0.154870717577128    0.633305476100819  0.0000
  O1     O1        0.120661719074697    0.847424787109587    0.397011165121263  0.0000
  O1     O1        0.385373014200393    0.102694783925421    0.378367135937030  0.0000
  O1     O1        0.974827839248155    0.978150500511169    0.467799163162617  0.0000
  O1     O1        0.483846099819366    0.988328883589444    0.566155903575236  0.0000
  O1     O1        0.022830541692733    0.983442905993727    0.214313115863044  0.0000
  O1     O1        0.535360661806490    0.979811315018039    0.318028173270696  0.0000
  O1     O1        0.030453722056418    0.982690332443262    0.711894687797436  0.0000
  O1     O1        0.528406168273561    0.017208536932214    0.818811013337856  0.0000
  O1     O1        0.629722123940638    0.136197487118810    0.143017686664543  0.0000
  O1     O1        0.882375138450598    0.845442804363856    0.141232351464456  0.0000
  O1     O1        0.380905309097183    0.125529399824733    0.887198701292516  0.0000
  O1     O1        0.134257530047923    0.881613256246371    0.896711952805055  0.0000
  O1     O1        0.419258370694728    0.782074656328344    0.902757312896611  0.0000
  O1     O1        0.086512742750083    0.219755445219179    0.894038412136530  0.0000
  O3     O3        0.594593700621162    0.783414626675954    0.112053084506829  0.0000
  O3     O3        0.905549879514711    0.198322611295069    0.127709734355053  0.0000
  O1     O1        0.483502972624625    0.023915331035295    0.071639178636355  0.0000
  O1     O1        0.982326959525357    0.966731435918992    0.960349134107153  0.0000
  O1     O1        0.164573675262203    0.509939736099836    0.358010377958124  0.0000
  O1     O1        0.343929625870265    0.448309040020225    0.357848783118103  0.0000
  O3     O3        0.856111626796348    0.538399263347807    0.687397123484309  0.0000
  O3     O3        0.659749844828314    0.492899600615101    0.681050318574262  0.0000
  O1     O1        0.239058262811577    0.202663217030083    0.298604588933650  0.0000
  O1     O1        0.268982563348691    0.759564280806114    0.310120390601467  0.0000
  O1     O1        0.766947520237545    0.241967981173396    0.718328462730634  0.0000
  O2     O2        0.746933364128458    0.754647107550555    0.731114327601925  0.0000
  O1     O1        0.123038435654999    0.324385219769147    0.141765089300007  0.0000
  O1     O1        0.386707838078405    0.653045399077375    0.148262498135494  0.0000
  O3     O3        0.882213019731270    0.315363817620116    0.895133484144038  0.0000
  O2     O2        0.638330061402586    0.671274321318504    0.887422775429181  0.0000
  O3     O3        0.860370880172971    0.736670371664990    0.889608220072256  0.0000
  O1     O1        0.642735855446723    0.249837187075714    0.886276754776817  0.0000
  O1     O1        0.144175392663090    0.735499771234596    0.146822521385630  0.0000
  O1     O1        0.361214129603658    0.254253935934862    0.136277509114371  0.0000
  O3     O3        0.656929508528036    0.481128776362827    0.092198874595187  0.0000
  O3     O3        0.847569948867782    0.504122931797269    0.096418949757858  0.0000
  O1     O1        0.345431207411665    0.469386770074782    0.924911100739979  0.0000
  O1     O1        0.161184800244322    0.531310290374114    0.930485080563309  0.0000
  O3     O3        0.768603837693482    0.234708168352432    0.039205004942335  0.0000
  O3     O3        0.737441036011915    0.758831022441447    0.062966509497225  0.0000
  O1     O1        0.236764527843821    0.221911683675205    0.973613378278593  0.0000
  O1     O1        0.271333025777212    0.769469419805767    0.994781226473679  0.0000
