data_c00281.vasp
_audit_creation_method             Generated by GULP
_audit_author_name                 Salvador R. G. Balestra
_symmetry_space_group_name_H-M     'P 1             '
_symmetry_Int_Tables_number        1

loop_
_symmetry_equiv_pos_site_id
_symmetry_equiv_pos_as_xyz
_cell_length_a                       17.6519
_cell_length_b                        7.8013
_cell_length_c                       10.2304
_cell_angle_alpha                   88.1185
_cell_angle_beta                    90.8280
_cell_angle_gamma                   90.6385

loop_
_atom_site_label
_atom_site_type_symbol
_atom_site_fract_x
_atom_site_fract_y
_atom_site_fract_z
_atom_site_charge
  Ge     Ge        0.052090000000021    0.000000000000000    0.372269999999958  0.0000
  Ge     Ge        0.444482092398252    0.052888945873357    0.351283408979294  0.0000
  Ge     Ge        0.948176902925246    0.075846957449144    0.619664188239686  0.0000
  Ge     Ge        0.544928223428911    0.032502955999304    0.612081576226254  0.0000
  Ge     Ge        0.560285893655918    0.007979593813601    0.123534192223804  0.0000
  Ge     Ge        0.940675765421078    0.063961375426376    0.122177682714125  0.0000
  Ge     Ge        0.447497256550628    0.082632033337497    0.876528090777679  0.0000
  Ge     Ge        0.175472127357780    0.284417748363069    0.259598266199437  0.0000
  Ge     Ge        0.328428868052300    0.756264288321684    0.256505326225267  0.0000
  Ge     Ge        0.848982885402275    0.387501714508713    0.691140541895761  0.0000
  Ge     Ge        0.644788613154639    0.714442939202156    0.687872366090892  0.0000
  Ge     Ge        0.823216959577154    0.794727838088964    0.688684395552805  0.0000
  Ge     Ge        0.670451887491491    0.305162992660301    0.691270557465553  0.0000
  Ge     Ge        0.144531655794798    0.686512319169466    0.263712232128466  0.0000
  Ge     Ge        0.673902895247816    0.304463529296533    0.006886373557673  0.0000
  Ge     Ge        0.824921449555923    0.775874147363838    0.005380121729411  0.0000
  Ge     Ge        0.338860123348903    0.392206472562621    0.922575062751005  0.0000
  Ge     Ge        0.143134562953808    0.714169915511474    0.947920622462161  0.0000
  Ge     Ge        0.323928968223325    0.791692173249298    0.943491469046813  0.0000
  Ge     Ge        0.165156944116586    0.307019106002767    0.934086913022871  0.0000
  Si     Si        0.043525001165611    0.022628046560154    0.877352323068757  0.0000
  Si     Si        0.347021300881140    0.366697225325901    0.242638890701749  0.0000
  Si     Si        0.648029794476944    0.702022931775826    0.000301044282092  0.0000
  Si     Si        0.850725488728700    0.380369055550244    0.002323583370064  0.0000
  O1     O1        0.131878156073731    0.120485596824444    0.342366322653860  0.0000
  O1     O1        0.375831209794239    0.898271058348405    0.353808731896183  0.0000
  O1     O1        0.914571008289952    0.281237544660679    0.603440811413617  0.0000
  O1     O1        0.577233716503701    0.825941172869213    0.600461393696416  0.0000
  O1     O1        0.874968126180089    0.933742993172800    0.592309731498868  0.0000
  O1     O1        0.620071910323720    0.173392298120840    0.592107005987536  0.0000
  O1     O1        0.078657006212282    0.792095427201012    0.352275446325884  0.0000
  O3     O3        0.418037829207296    0.249257938420647    0.279446154129149  0.0000
  O1     O1        0.025447984202189    0.033981705148013    0.530577408955477  0.0000
  O1     O1        0.469880852452851    0.081307552951856    0.513174673429289  0.0000
  O1     O1        0.973782552356957    0.059467643653262    0.280381644840800  0.0000
  O1     O1        0.527915120493870    0.994172651557029    0.281055435379831  0.0000
  O3     O3        0.971419306345079    0.050979019928592    0.785714941614334  0.0000
  O1     O1        0.519122813411881    0.050462198382074    0.773392745151853  0.0000
  O1     O1        0.632833838572905    0.156093391049805    0.110199111243054  0.0000
  O1     O1        0.869050401126040    0.915513409583907    0.107169712063139  0.0000
  O1     O1        0.413359464647699    0.290032598787666    0.860291832006338  0.0000
  O3     O3        0.081433933739182    0.839646361907731    0.854636772083027  0.0000
  O1     O1        0.372307940288376    0.944663840673436    0.853863800533251  0.0000
  O3     O3        0.105250432398926    0.173259775670938    0.850110920221899  0.0000
  O3     O3        0.587793862597251    0.805008407728671    0.081086566402133  0.0000
  O3     O3        0.911389011047160    0.271080054886837    0.085853671407067  0.0000
  O1     O1        0.481940240880678    0.068199653161244    0.034166898133324  0.0000
  O3     O3        0.018153044477135    0.019656809902978    0.028570901118064  0.0000
  O1     O1        0.152635469306605    0.478800364460903    0.321861508990453  0.0000
  O3     O3        0.348941717571256    0.547812440022092    0.313460439340514  0.0000
  O1     O1        0.835846359715906    0.590907526574521    0.631513249976399  0.0000
  O1     O1        0.657028283974072    0.513725730880759    0.633129944586549  0.0000
  O3     O3        0.272344529089932    0.255252808464969    0.279001396901692  0.0000
  O1     O1        0.232536554383281    0.784454215683114    0.265740059686869  0.0000
  O1     O1        0.766058170124556    0.268720686401430    0.687981095537611  0.0000
  O1     O1        0.727906790260140    0.833013364848263    0.681212112090273  0.0000
  O1     O1        0.148252473842512    0.281076926829907    0.098101453287721  0.0000
  O1     O1        0.360073566320685    0.800998030326274    0.101095709616265  0.0000
  O3     O3        0.877384717530913    0.405703335605454    0.853494315612379  0.0000
  O3     O3        0.619636404391967    0.689821336587891    0.851131920364591  0.0000
  O1     O1        0.854694281996150    0.808663712476365    0.848605414200901  0.0000
  O1     O1        0.640069473981335    0.279807019042394    0.850939634064123  0.0000
  O1     O1        0.112030170603866    0.683205055476539    0.104847185942128  0.0000
  O3     O3        0.339596884638300    0.425326597107920    0.090625116329044  0.0000
  O3     O3        0.656699541273239    0.509915539949366    0.059457521024822  0.0000
  O3     O3        0.842549926326391    0.567058779612671    0.061442058367277  0.0000
  O1     O1        0.335916753476698    0.600365877152699    0.866289892752026  0.0000
  O1     O1        0.151686271669256    0.517746708276797    0.881912982337222  0.0000
  O3     O3        0.770965503628086    0.277317354861360    0.005008665219947  0.0000
  O3     O3        0.727837447119911    0.804544428217121    0.005495560531986  0.0000
  O1     O1        0.258107653940870    0.270858936444838    0.897990577475883  0.0000
  O1     O1        0.228313273805261    0.824288731758497    0.953296940032543  0.0000
