data_c00248.vasp
_audit_creation_method             Generated by GULP
_audit_author_name                 Salvador R. G. Balestra
_symmetry_space_group_name_H-M     'P 1             '
_symmetry_Int_Tables_number        1

loop_
_symmetry_equiv_pos_site_id
_symmetry_equiv_pos_as_xyz
_cell_length_a                       17.6845
_cell_length_b                        7.8074
_cell_length_c                       10.1095
_cell_angle_alpha                   90.4888
_cell_angle_beta                    91.2104
_cell_angle_gamma                   88.4723

loop_
_atom_site_label
_atom_site_type_symbol
_atom_site_fract_x
_atom_site_fract_y
_atom_site_fract_z
_atom_site_charge
  Ge     Ge        0.052090000000021    0.000000000000000    0.372269999999958  0.0000
  Ge     Ge        0.441758397961127    0.948877808396953    0.409873149503465  0.0000
  Ge     Ge        0.937796298184018    0.938673272318491    0.608337061814917  0.0000
  Ge     Ge        0.550984108251750    0.987660280025250    0.664604418444088  0.0000
  Ge     Ge        0.550748878098902    0.996263102067880    0.166867323994836  0.0000
  Ge     Ge        0.948393801374312    0.931497132425643    0.116426144995321  0.0000
  Ge     Ge        0.445034002498403    0.933032401266805    0.912953881766769  0.0000
  Ge     Ge        0.047113732843861    0.994321448071994    0.861600401220183  0.0000
  Ge     Ge        0.150570135010981    0.314360188065685    0.311148486011067  0.0000
  Ge     Ge        0.820281815674493    0.225431951399314    0.726498761687278  0.0000
  Ge     Ge        0.845458944646750    0.623743081199067    0.724668559270436  0.0000
  Ge     Ge        0.173425647409994    0.712321206257371    0.300389962420029  0.0000
  Ge     Ge        0.643619706776130    0.301445107592525    0.043779522059215  0.0000
  Ge     Ge        0.849631932973301    0.620166889823924    0.049406883257459  0.0000
  Ge     Ge        0.320192381714290    0.217556232320936    0.984585121507965  0.0000
  Ge     Ge        0.169479567792733    0.709438262896191    0.979286466165203  0.0000
  Ge     Ge        0.347970001752924    0.623843109218453    0.978180891718900  0.0000
  Ge     Ge        0.141920113457223    0.304344484828230    0.987143008552402  0.0000
  Ge     Ge        0.672127515001269    0.710476735526693    0.043302022017859  0.0000
  Ge     Ge        0.822699164499508    0.216439448050628    0.045874460933269  0.0000
  Si     Si        0.350729538967296    0.636368018776286    0.289687849519783  0.0000
  Si     Si        0.667768785557494    0.696000367006519    0.729070614490675  0.0000
  Si     Si        0.642545317609250    0.304294837216837    0.733412658166909  0.0000
  Si     Si        0.327108088414877    0.241552364840816    0.297896850715945  0.0000
  O1     O1        0.088117289080082    0.199170456716594    0.399942090551199  0.0000
  O3     O3        0.408104085193320    0.745487613233514    0.378850179151173  0.0000
  O1     O1        0.859680933341580    0.069557290280818    0.628738790342509  0.0000
  O3     O3        0.619658019635972    0.827144950219904    0.637921781277864  0.0000
  O1     O1        0.910175600927460    0.734147356943745    0.638485942424257  0.0000
  O3     O3        0.588212863979980    0.189741938744790    0.641586094068577  0.0000
  O1     O1        0.127311654479085    0.858702378595773    0.397728249142164  0.0000
  O3     O3        0.374362044462741    0.112111576356616    0.390893471477721  0.0000
  O1     O1        0.970356112913450    0.953896172335047    0.449153709668630  0.0000
  O1     O1        0.470678045529105    0.954702854564019    0.573704368536875  0.0000
  O1     O1        0.026713897765724    0.982266738151391    0.205882538698114  0.0000
  O1     O1        0.523599057107702    0.985854853562519    0.328928518238370  0.0000
  O1     O1        0.016089504951639    0.997240602006353    0.699230635833629  0.0000
  O1     O1        0.522651504836998    0.978384671867154    0.826418167098773  0.0000
  O1     O1        0.577701241712356    0.201660373016994    0.133649555616524  0.0000
  O1     O1        0.915959206605554    0.728083463408609    0.140551043750155  0.0000
  O1     O1        0.370200304373246    0.076830073046452    0.889859022229354  0.0000
  O1     O1        0.123141469480731    0.854813924591720    0.879858382145756  0.0000
  O1     O1        0.411940323974534    0.729732620122443    0.886960838677807  0.0000
  O1     O1        0.072026114871445    0.199417758070618    0.903919325711855  0.0000
  O1     O1        0.625731810770623    0.857122093608513    0.138681173415339  0.0000
  O1     O1        0.874581609833073    0.076100690501772    0.140943097405597  0.0000
  O1     O1        0.471822499098742    0.943995347823700    0.077730040890627  0.0000
  O1     O1        0.972309932474854    0.931536312843413    0.951387077015601  0.0000
  O1     O1        0.156442644387982    0.517198685262735    0.370967386651145  0.0000
  O2     O2        0.339835275467948    0.441244042285492    0.340958376922131  0.0000
  O1     O1        0.840145868833395    0.420497508868551    0.660649475605243  0.0000
  O2     O2        0.652758676908807    0.498556562164940    0.682255788677588  0.0000
  O3     O3        0.238352779474153    0.207922170674575    0.309301030546185  0.0000
  O3     O3        0.270031881488328    0.736970765384235    0.293275047735743  0.0000
  O3     O3        0.723693324931428    0.206670620003441    0.738095108208083  0.0000
  O3     O3        0.756729485151712    0.726880068539926    0.718964126347684  0.0000
  O1     O1        0.118588298927822    0.328656798546639    0.149983723511230  0.0000
  O3     O3        0.380559159000259    0.621908466324153    0.142179765180541  0.0000
  O1     O1        0.854844969546945    0.203386598803200    0.885682709506158  0.0000
  O3     O3        0.641202975164499    0.723507841399467    0.879263825917516  0.0000
  O1     O1        0.874694805536960    0.601639384137275    0.885807795119591  0.0000
  O3     O3        0.610765075386568    0.312226195231589    0.880646455646112  0.0000
  O1     O1        0.139081925876294    0.726074978169644    0.139989966490099  0.0000
  O3     O3        0.352954067614295    0.210381759189175    0.148212903465401  0.0000
  O1     O1        0.656827292068750    0.506081177070488    0.098812871748048  0.0000
  O1     O1        0.836840385027827    0.420478427918622    0.108595789491033  0.0000
  O1     O1        0.334665202203724    0.420713905364864    0.924469103394556  0.0000
  O1     O1        0.153623864735289    0.503684241721267    0.922951127123066  0.0000
  O1     O1        0.727458747616970    0.183648666233365    0.050361590593718  0.0000
  O1     O1        0.767094769325850    0.743418763668882    0.051018973422792  0.0000
  O1     O1        0.225239292647474    0.183817898557512    0.978451728829030  0.0000
  O1     O1        0.264600457286340    0.742372936400754    0.975199133055397  0.0000
