data_c00254.vasp
_audit_creation_method             Generated by GULP
_audit_author_name                 Salvador R. G. Balestra
_symmetry_space_group_name_H-M     'P 1             '
_symmetry_Int_Tables_number        1

loop_
_symmetry_equiv_pos_site_id
_symmetry_equiv_pos_as_xyz
_cell_length_a                       17.7860
_cell_length_b                        7.8356
_cell_length_c                       10.4701
_cell_angle_alpha                   90.4168
_cell_angle_beta                    90.6099
_cell_angle_gamma                   89.7949

loop_
_atom_site_label
_atom_site_type_symbol
_atom_site_fract_x
_atom_site_fract_y
_atom_site_fract_z
_atom_site_charge
  Ge     Ge        0.052090000000021    0.000000000000000    0.372269999999958  0.0000
  Ge     Ge        0.452451432724179    0.958976195547873    0.399768622319912  0.0000
  Ge     Ge        0.950647644440236    0.995788410084680    0.629109236024872  0.0000
  Ge     Ge        0.548959534484529    0.958634356202258    0.661788018445492  0.0000
  Ge     Ge        0.562002220410255    0.967711986432074    0.159414902861066  0.0000
  Ge     Ge        0.949807576772245    0.995886735651529    0.110065108293000  0.0000
  Ge     Ge        0.446742062024237    0.972631937765934    0.919003645825093  0.0000
  Ge     Ge        0.152104099422849    0.308384470938374    0.289859963520083  0.0000
  Ge     Ge        0.350494140353882    0.652366721533571    0.290243666417123  0.0000
  Ge     Ge        0.849816583669074    0.306009622384573    0.737354468552708  0.0000
  Ge     Ge        0.652170388500197    0.649214309032091    0.736130928596649  0.0000
  Ge     Ge        0.829578566773510    0.714257237153996    0.736499312900186  0.0000
  Ge     Ge        0.672341937842228    0.238323371378652    0.735650406638702  0.0000
  Ge     Ge        0.172999606498542    0.716753718244755    0.297147385768588  0.0000
  Ge     Ge        0.330494703701699    0.243873600412254    0.282778025941720  0.0000
  Ge     Ge        0.674593075461215    0.255825604578525    0.044302877676318  0.0000
  Ge     Ge        0.830712360802518    0.706877705983369    0.045699805797130  0.0000
  Ge     Ge        0.328137579052615    0.263825789521126    0.973624790058016  0.0000
  Ge     Ge        0.168393121821719    0.716899245953911    0.986671137710143  0.0000
  Ge     Ge        0.146187661906796    0.311735806897445    0.977621736278590  0.0000
  Si     Si        0.055817302303267    0.997418799257261    0.870006304876050  0.0000
  Si     Si        0.345885396808712    0.660736353132734    0.985599354661660  0.0000
  Si     Si        0.653768133772083    0.654834947631896    0.041716363953300  0.0000
  Si     Si        0.851199526902517    0.311586109775202    0.042311519633316  0.0000
  O1     O1        0.091307312875931    0.199116954440423    0.384602280285684  0.0000
  O1     O1        0.419734508468900    0.755995611695496    0.372439166246287  0.0000
  O1     O1        0.917511092908309    0.198091209425443    0.655796479500137  0.0000
  O1     O1        0.586629191940875    0.756753901238303    0.647974706508046  0.0000
  O1     O1        0.880611041628426    0.849618962045434    0.644971978225018  0.0000
  O1     O1        0.619523595786720    0.106194938974036    0.641533960653259  0.0000
  O1     O1        0.121483875175411    0.848551986249104    0.392792006603006  0.0000
  O1     O1        0.382300760978486    0.103745747529727    0.371068873306973  0.0000
  O1     O1        0.979298769293692    0.976506926624276    0.473704770489495  0.0000
  O1     O1        0.475781406098183    0.984271552619385    0.558847746368051  0.0000
  O1     O1        0.020841127164858    0.975021945468617    0.216520492174611  0.0000
  O1     O1        0.533734894319950    0.983118559437709    0.315254625145129  0.0000
  O3     O3        0.029232560218992    0.963483457601870    0.725397912335813  0.0000
  O1     O1        0.519702459839168    0.983268716986299    0.817021362182077  0.0000
  O1     O1        0.630865710119562    0.118663428033802    0.143608961630347  0.0000
  O1     O1        0.880503174261476    0.847298599075195    0.137329224299541  0.0000
  O1     O1        0.381292827406096    0.128911283816301    0.883453842479794  0.0000
  O3     O3        0.126629374947870    0.875704646776535    0.898975160609598  0.0000
  O3     O3        0.402325865908213    0.775729308569924    0.906212266593190  0.0000
  O3     O3        0.081577750718948    0.192571986981569    0.891416821790825  0.0000
  O3     O3        0.595662481435157    0.765394492868869    0.123217953697666  0.0000
  O3     O3        0.910074442852366    0.198162257871292    0.121160506769535  0.0000
  O1     O1        0.482612855016418    0.005963611194049    0.070220006671159  0.0000
  O3     O3        0.985054356576777    0.956522428579471    0.958830638282751  0.0000
  O1     O1        0.164409040254546    0.509265520091131    0.348834463803228  0.0000
  O1     O1        0.341205839530512    0.448315228217248    0.343141658699894  0.0000
  O1     O1        0.839387304793796    0.507822645707896    0.679994566011799  0.0000
  O1     O1        0.662088042480737    0.445415317269869    0.682565004103835  0.0000
  O1     O1        0.236279025784202    0.198240606948347    0.285691305959927  0.0000
  O1     O1        0.267183394409977    0.763329469063258    0.303351936230538  0.0000
  O1     O1        0.766874189895191    0.193748465758329    0.728419950674436  0.0000
  O1     O1        0.735319761152211    0.760412239669034    0.729421574673260  0.0000
  O1     O1        0.119180415042768    0.316178151800741    0.134363663956375  0.0000
  O3     O3        0.375695018659566    0.643853676507483    0.130569664247024  0.0000
  O3     O3        0.877175037042132    0.325026545896369    0.896119332092229  0.0000
  O3     O3        0.625727761144674    0.643350904778276    0.895633310417578  0.0000
  O1     O1        0.860419793469386    0.729299666972250    0.891660083099645  0.0000
  O1     O1        0.642281220351763    0.225060311887651    0.891462285692015  0.0000
  O1     O1        0.139863271213855    0.726878400393063    0.142010608312058  0.0000
  O1     O1        0.359834171256423    0.237863313927513    0.127767993711019  0.0000
  O3     O3        0.659480448676413    0.464146574894387    0.096008542586613  0.0000
  O3     O3        0.846021007655642    0.500671854400347    0.100892711814227  0.0000
  O3     O3        0.338859121136559    0.473663377059597    0.923822419715852  0.0000
  O1     O1        0.148072588488821    0.518764181432028    0.924150228304103  0.0000
  O3     O3        0.770442588003430    0.219073909630314    0.043781508451495  0.0000
  O3     O3        0.735036091634989    0.745888775564858    0.048403786063342  0.0000
  O1     O1        0.233947186532703    0.221248242486473    0.965299656004984  0.0000
  O3     O3        0.264343456970672    0.751081642231731    0.988314102711431  0.0000
