data_c00218.vasp
_audit_creation_method             Generated by GULP
_audit_author_name                 Salvador R. G. Balestra
_symmetry_space_group_name_H-M     'P 1             '
_symmetry_Int_Tables_number        1

loop_
_symmetry_equiv_pos_site_id
_symmetry_equiv_pos_as_xyz
_cell_length_a                       17.8334
_cell_length_b                        7.8813
_cell_length_c                       10.2967
_cell_angle_alpha                   88.7591
_cell_angle_beta                    90.4045
_cell_angle_gamma                   89.4714

loop_
_atom_site_label
_atom_site_type_symbol
_atom_site_fract_x
_atom_site_fract_y
_atom_site_fract_z
_atom_site_charge
  Ge     Ge        0.052090000000021    0.000000000000000    0.372269999999958  0.0000
  Ge     Ge        0.449332965948138    0.975865731920309    0.399513006187959  0.0000
  Ge     Ge        0.943203245690293    0.028311415970538    0.617242917119039  0.0000
  Ge     Ge        0.553812678766696    0.013925165474536    0.654001475544996  0.0000
  Ge     Ge        0.557034526330900    0.000805155223402    0.152484493678486  0.0000
  Ge     Ge        0.947419532917747    0.016444638272178    0.114716349945327  0.0000
  Ge     Ge        0.448227432791387    0.000876726877731    0.907841794743138  0.0000
  Ge     Ge        0.052917538536469    0.024713929560495    0.865086687921935  0.0000
  Ge     Ge        0.156343717485884    0.310267479401924    0.297758471151934  0.0000
  Ge     Ge        0.351781294639274    0.664323420436582    0.297705609888523  0.0000
  Ge     Ge        0.849512666773317    0.346886837113224    0.724967417957449  0.0000
  Ge     Ge        0.666325462131671    0.306212956691768    0.722013345331872  0.0000
  Ge     Ge        0.170444229072578    0.713374739642705    0.304485605632600  0.0000
  Ge     Ge        0.667875370518939    0.294630432570821    0.034880539647380  0.0000
  Ge     Ge        0.826132884061484    0.739942309264556    0.042899639977685  0.0000
  Ge     Ge        0.326500465678091    0.282554065733260    0.971670830312051  0.0000
  Ge     Ge        0.170781887209373    0.738665166421553    0.989775320742482  0.0000
  Ge     Ge        0.351396921070125    0.682527172516620    0.984471646544599  0.0000
  Ge     Ge        0.147687022751188    0.332781118705863    0.979762052927298  0.0000
  Ge     Ge        0.849207648808274    0.336516525921318    0.040065146155897  0.0000
  Si     Si        0.656389505781633    0.701464824137156    0.724911887352357  0.0000
  Si     Si        0.830614762578738    0.742017714431886    0.731793179008603  0.0000
  Si     Si        0.332817975128419    0.268703260042119    0.283237848427905  0.0000
  Si     Si        0.651741572995179    0.696200999528223    0.030334093645723  0.0000
  O1     O1        0.098704685943974    0.187702247217604    0.391335258793226  0.0000
  O1     O1        0.411858570920940    0.776812904485566    0.392968683590734  0.0000
  O1     O1        0.908453615248205    0.230771410149409    0.630448032713930  0.0000
  O3     O3        0.602830378091565    0.823194239255706    0.641250909206834  0.0000
  O3     O3        0.871856624766714    0.888486715125065    0.652721297017344  0.0000
  O1     O1        0.614878343388857    0.177407232379765    0.624513002785436  0.0000
  O1     O1        0.116916902893618    0.840867524895439    0.400423410991129  0.0000
  O3     O3        0.382253500932330    0.125807539610128    0.355561941622083  0.0000
  O1     O1        0.971796363251342    0.992531318560342    0.461279927703920  0.0000
  O1     O1        0.476442274461853    0.014559203976119    0.556752517860327  0.0000
  O1     O1        0.022795435178631    0.982927764527824    0.212774342743395  0.0000
  O1     O1        0.530783599053663    0.988978352138702    0.311983090853509  0.0000
  O1     O1        0.023680918122366    0.001686704411665    0.707354332451833  0.0000
  O1     O1        0.523153332603964    0.033367173600565    0.810638131170813  0.0000
  O1     O1        0.621229838236877    0.160170957890371    0.137616856062548  0.0000
  O1     O1        0.874224170912140    0.876044801810569    0.136155766259014  0.0000
  O1     O1        0.376607942707574    0.146671485616643    0.880408392534553  0.0000
  O1     O1        0.126947019348401    0.889435203478671    0.894845905151987  0.0000
  O1     O1        0.411333973691784    0.802263579822720    0.892124526799384  0.0000
  O1     O1        0.081212904453811    0.229443972514329    0.892469555831469  0.0000
  O3     O3        0.589458913437119    0.803907001627789    0.101561690457533  0.0000
  O1     O1        0.910471079599278    0.216614032787152    0.132724257421851  0.0000
  O1     O1        0.477088750597049    0.039584588860142    0.064497901540439  0.0000
  O1     O1        0.976512276006404    0.980380608721409    0.958678688645040  0.0000
  O1     O1        0.159671363616378    0.507976202724805    0.360138286971747  0.0000
  O3     O3        0.345311090284266    0.452611852921851    0.346517249198760  0.0000
  O3     O3        0.850215955234429    0.558636154744497    0.674883143133952  0.0000
  O3     O3        0.652681266952819    0.514899393066581    0.669073729758964  0.0000
  O3     O3        0.245583143439041    0.219937155613945    0.292914697986494  0.0000
  O1     O1        0.264270553174893    0.756769686365481    0.307703115748285  0.0000
  O1     O1        0.760585433595421    0.266175763666182    0.715298988673986  0.0000
  O2     O2        0.740966195148419    0.773473787888197    0.720628275048922  0.0000
  O1     O1        0.122617753206555    0.321397619679997    0.140912770069975  0.0000
  O1     O1        0.384967292139528    0.678230322536555    0.142006990466146  0.0000
  O1     O1        0.880981588260968    0.331219800403531    0.882297148200678  0.0000
  O2     O2        0.631562221872948    0.691482794935994    0.876236136508439  0.0000
  O3     O3        0.854475339782183    0.744671333018826    0.882051083395261  0.0000
  O1     O1        0.636065601366561    0.273933473509636    0.878890710952923  0.0000
  O1     O1        0.138602750941843    0.736120324289397    0.146621206297695  0.0000
  O3     O3        0.355166560849277    0.285727134213990    0.133126768169219  0.0000
  O3     O3        0.655864360024000    0.503860882765797    0.083483552440301  0.0000
  O1     O1        0.843978339974427    0.536561568082728    0.098865128660236  0.0000
  O1     O1        0.341367504023826    0.488217178797528    0.917701793484001  0.0000
  O1     O1        0.154979251863844    0.539868677756018    0.928565120207703  0.0000
  O1     O1        0.761549621217383    0.247317395534373    0.039534002664035  0.0000
  O3     O3        0.731400605844757    0.786355594013078    0.050756669991598  0.0000
  O1     O1        0.233575496688204    0.234449804020572    0.962739694770247  0.0000
  O1     O1        0.264695896925287    0.779767957315606    0.992676790359800  0.0000
