data_c00269.vasp
_audit_creation_method             Generated by GULP
_audit_author_name                 Salvador R. G. Balestra
_symmetry_space_group_name_H-M     'P 1             '
_symmetry_Int_Tables_number        1

loop_
_symmetry_equiv_pos_site_id
_symmetry_equiv_pos_as_xyz
_cell_length_a                       17.6076
_cell_length_b                        7.8027
_cell_length_c                       10.3481
_cell_angle_alpha                   89.5225
_cell_angle_beta                    90.5440
_cell_angle_gamma                   90.8940

loop_
_atom_site_label
_atom_site_type_symbol
_atom_site_fract_x
_atom_site_fract_y
_atom_site_fract_z
_atom_site_charge
  Ge     Ge        0.052090000000021    0.000000000000000    0.372269999999958  0.0000
  Ge     Ge        0.450574086748926    0.052436942069468    0.365663126826372  0.0000
  Ge     Ge        0.951515688462621    0.051261313540449    0.629592398629811  0.0000
  Ge     Ge        0.551141218925947    0.002081006938437    0.623856023984259  0.0000
  Ge     Ge        0.549306111722453    0.985061346434616    0.108987566973173  0.0000
  Ge     Ge        0.953579369177938    0.047342537554499    0.107631511160973  0.0000
  Ge     Ge        0.439628410419984    0.051379713098220    0.861434952246729  0.0000
  Ge     Ge        0.174080675758568    0.279189551361896    0.291361987974929  0.0000
  Ge     Ge        0.326815146736869    0.773478741533088    0.285864214512760  0.0000
  Ge     Ge        0.855260075905520    0.363738488399865    0.737089408001759  0.0000
  Ge     Ge        0.647406912273951    0.686262422871589    0.739443210144778  0.0000
  Ge     Ge        0.826923214863416    0.768436428353410    0.736061981382435  0.0000
  Ge     Ge        0.675476728858290    0.283751015420387    0.730331077457493  0.0000
  Ge     Ge        0.148380771390320    0.687395088276117    0.289637983316182  0.0000
  Ge     Ge        0.351707239065556    0.365682957799393    0.289674664826792  0.0000
  Ge     Ge        0.674671942237422    0.272718942201662    0.043695727182712  0.0000
  Ge     Ge        0.831045429272036    0.752181997442185    0.050981262039863  0.0000
  Ge     Ge        0.326145802013701    0.756979631438549    0.975481055080322  0.0000
  Ge     Ge        0.169924433475641    0.292683822642920    0.977822097229545  0.0000
  Ge     Ge        0.652217334058913    0.672199381807903    0.059251099437399  0.0000
  Si     Si        0.059522319369295    0.999834703812371    0.865958817772247  0.0000
  Si     Si        0.348850116177364    0.362202283153019    0.980206565408947  0.0000
  Si     Si        0.146563069216437    0.688646281637508    0.984699523529780  0.0000
  Si     Si        0.850701434143401    0.355437948177926    0.044450377271679  0.0000
  O1     O1        0.126378328183282    0.143769891191752    0.393038511892808  0.0000
  O1     O1        0.375980704729201    0.909541204608293    0.385036266524382  0.0000
  O1     O1        0.926411720927872    0.257679302643468    0.661860169813913  0.0000
  O1     O1        0.575357541488517    0.797041283471178    0.666729159605080  0.0000
  O1     O1        0.874658733213724    0.917931644968153    0.645601044992577  0.0000
  O1     O1        0.627758143895157    0.137242220131854    0.637272050080689  0.0000
  O1     O1        0.083998776504737    0.793292435498502    0.381113060820514  0.0000
  O1     O1        0.418986977131738    0.259032378991788    0.377817717310661  0.0000
  O1     O1        0.978107669999665    0.037870863861938    0.470350659391973  0.0000
  O1     O1        0.525517774847063    0.006159200308069    0.462192507637866  0.0000
  O1     O1        0.026859806825690    0.034273025896846    0.212200007408883  0.0000
  O1     O1        0.476363668324572    0.033451139367142    0.205432110352643  0.0000
  O3     O3        0.031204903192350    0.991528690093272    0.718507594149233  0.0000
  O1     O1        0.471659138981330    0.065237979210415    0.705337569718917  0.0000
  O1     O1        0.626374513707553    0.121881804158763    0.130218860364330  0.0000
  O1     O1        0.888607880226441    0.885565728312951    0.139211777422679  0.0000
  O3     O3        0.409913372835279    0.253311084149236    0.904660044420593  0.0000
  O2     O2        0.089230124045382    0.811246240172168    0.905822873936533  0.0000
  O1     O1        0.366777159053681    0.902689193161527    0.872860304648491  0.0000
  O3     O3        0.125348979449107    0.144017397077470    0.879930125058648  0.0000
  O1     O1        0.583634311272014    0.782318514745211    0.137182588059688  0.0000
  O3     O3        0.910420000623129    0.244969960375909    0.124525643672588  0.0000
  O1     O1        0.517248452760908    0.991909467206507    0.950900992998383  0.0000
  O3     O3        0.986459660190985    0.045063052581315    0.949913347388358  0.0000
  O1     O1        0.162652237668252    0.486102713053392    0.346559022448879  0.0000
  O1     O1        0.339604933528072    0.567232391930610    0.344768121013735  0.0000
  O1     O1        0.843711732204965    0.566545165320796    0.676772143574169  0.0000
  O1     O1        0.658983807652687    0.487793523157001    0.672605224231120  0.0000
  O1     O1        0.269681866997537    0.242528907877744    0.294424329602196  0.0000
  O1     O1        0.231085293741740    0.808884642043139    0.288066236850722  0.0000
  O1     O1        0.771496187448537    0.248910335553207    0.723922048656813  0.0000
  O1     O1        0.730990146570055    0.803513410717622    0.728444724276265  0.0000
  O1     O1        0.141424822103756    0.264718463824639    0.133479464198643  0.0000
  O1     O1        0.360209040980703    0.789941551806813    0.129262854447334  0.0000
  O3     O3        0.878286000989138    0.389657272196481    0.898609080755971  0.0000
  O1     O1        0.628386087849065    0.648076786485386    0.898575459491083  0.0000
  O1     O1        0.857551775908401    0.784335546762156    0.893456722505939  0.0000
  O1     O1        0.643113407508445    0.260724866393139    0.886003768913703  0.0000
  O3     O3        0.116885100719420    0.668912075625071    0.130085046083620  0.0000
  O3     O3        0.375744995327697    0.385146120363252    0.127695004468595  0.0000
  O1     O1        0.659510368549380    0.467419767248431    0.116028975828453  0.0000
  O3     O3        0.839399194431524    0.540949046145809    0.105750674410463  0.0000
  O3     O3        0.343329936482174    0.552097618315680    0.919700422916277  0.0000
  O3     O3        0.150124764823328    0.500010440498686    0.924030322686521  0.0000
  O3     O3        0.772095738492823    0.245597078351278    0.038977609008823  0.0000
  O1     O1        0.736049812343119    0.789978596468409    0.066695054956049  0.0000
  O3     O3        0.267195734812969    0.265540839416531    0.972508010536663  0.0000
  O3     O3        0.228925083752524    0.779650681407916    0.984632926876298  0.0000
