data_c00290.vasp
_audit_creation_method             Generated by GULP
_audit_author_name                 Salvador R. G. Balestra
_symmetry_space_group_name_H-M     'P 1             '
_symmetry_Int_Tables_number        1

loop_
_symmetry_equiv_pos_site_id
_symmetry_equiv_pos_as_xyz
_cell_length_a                       16.8457
_cell_length_b                        7.8928
_cell_length_c                       10.7286
_cell_angle_alpha                   83.5260
_cell_angle_beta                    90.5283
_cell_angle_gamma                   90.3916

loop_
_atom_site_label
_atom_site_type_symbol
_atom_site_fract_x
_atom_site_fract_y
_atom_site_fract_z
_atom_site_charge
  Ge     Ge        0.052090000000021    0.000000000000000    0.372269999999958  0.0000
  Ge     Ge        0.451170091224900    0.044365142269953    0.351706169992923  0.0000
  Ge     Ge        0.964066793970287    0.092686848756279    0.625746024080274  0.0000
  Ge     Ge        0.533086327848086    0.084117411155924    0.620594900358956  0.0000
  Ge     Ge        0.570141669473200    0.001326297203721    0.126285422142723  0.0000
  Ge     Ge        0.936688503235870    0.023317012657144    0.125581391763816  0.0000
  Ge     Ge        0.443895939529123    0.141993431311046    0.890682436439814  0.0000
  Ge     Ge        0.171840549713382    0.301344515381911    0.248033129401656  0.0000
  Ge     Ge        0.342651812038063    0.738416523270124    0.285056485325223  0.0000
  Ge     Ge        0.854546045839251    0.382610884487331    0.690381673086736  0.0000
  Ge     Ge        0.647305286515167    0.762663751934861    0.710129345700753  0.0000
  Ge     Ge        0.836771195475172    0.792856003533448    0.708688159496694  0.0000
  Ge     Ge        0.658916992023605    0.351476929008105    0.693318818545432  0.0000
  Ge     Ge        0.144881613423963    0.693782346008585    0.289566277561302  0.0000
  Ge     Ge        0.657468002148507    0.302851872036900    0.984895479900551  0.0000
  Ge     Ge        0.843907972387087    0.713623012858225    0.014910273050904  0.0000
  Ge     Ge        0.343818474224846    0.471666308116179    0.940728803902481  0.0000
  Ge     Ge        0.160168168623643    0.417410966206408    0.940854101407982  0.0000
  Ge     Ge        0.653576785088880    0.688479739229090    0.016480454776974  0.0000
  Ge     Ge        0.849942155163639    0.328418672842852    0.981187155615300  0.0000
  Si     Si        0.054459308901202    0.112804285275385    0.889981485682857  0.0000
  Si     Si        0.350888141293061    0.364423267219053    0.243442874609405  0.0000
  Si     Si        0.148619515339466    0.792001356492702    0.001522379481032  0.0000
  Si     Si        0.337871304204616    0.835324163194835    0.996862414997475  0.0000
  O1     O1        0.131601576385500    0.112847596026741    0.308067253796609  0.0000
  O1     O1        0.389545501802111    0.870394127639852    0.378073078529919  0.0000
  O1     O1        0.918295225974265    0.286831079432524    0.596139784246407  0.0000
  O1     O1        0.577339739146537    0.887584917656286    0.630030535467059  0.0000
  O1     O1        0.891735848219420    0.939589014157490    0.618573526435292  0.0000
  O1     O1        0.604708820716372    0.238829244087055    0.594971913930447  0.0000
  O1     O1        0.083402894417703    0.790652589173736    0.385671370564006  0.0000
  O3     O3        0.415108394290016    0.217885832387221    0.251824020719251  0.0000
  O1     O1        0.033333101237428    0.068708551225973    0.514042590586956  0.0000
  O1     O1        0.470171039340995    0.110477911299755    0.493532794380309  0.0000
  O1     O1        0.970272926966027    0.032093667347743    0.274813088600398  0.0000
  O1     O1        0.535758515085363    0.994879114260928    0.275068043323960  0.0000
  O3     O3        0.008026319922967    0.056130311139629    0.772144414310805  0.0000
  O1     O1        0.474447204134761    0.097112643073962    0.748912784889920  0.0000
  O1     O1        0.652684757288807    0.135114555371135    0.098910435775694  0.0000
  O1     O1        0.906990703987160    0.822973271885048    0.105749237933189  0.0000
  O1     O1        0.414653184409707    0.352739580092629    0.881860163933939  0.0000
  O2     O2        0.120911952236012    0.964602685128414    0.921438001861824  0.0000
  O3     O3        0.358510891065176    0.017643552181447    0.926701850256643  0.0000
  O3     O3        0.097339381694734    0.294813923778846    0.856335449795853  0.0000
  O1     O1        0.590669026621260    0.797448474258758    0.104817103369523  0.0000
  O1     O1        0.857696616050649    0.163467311166546    0.096570721440008  0.0000
  O1     O1        0.512203590402921    0.112008117825254    0.008706110612135  0.0000
  O3     O3        0.999463452126946    0.122813770036859    0.010459601775101  0.0000
  O1     O1        0.128943001491422    0.478531191523062    0.299594286814346  0.0000
  O3     O3        0.377919188763376    0.530602411970452    0.307987738723726  0.0000
  O1     O1        0.873414750549157    0.594149177585842    0.690050875518471  0.0000
  O1     O1        0.624993240154123    0.554932283672159    0.692904043151602  0.0000
  O3     O3        0.269043540822101    0.289653969303557    0.303266894097948  0.0000
  O1     O1        0.243485367260994    0.733638094120152    0.316240299550494  0.0000
  O1     O1        0.756675270359088    0.347794643033199    0.651955338926005  0.0000
  O1     O1        0.740957012864328    0.808337861215124    0.653271555640409  0.0000
  O1     O1        0.161649021576086    0.311757446493375    0.088660689250637  0.0000
  O3     O3        0.372889861621654    0.832847369887305    0.137471187758099  0.0000
  O1     O1        0.878523404916525    0.278854866305061    0.836403989700973  0.0000
  O1     O1        0.649515525295961    0.791949366941948    0.866398892866902  0.0000
  O1     O1        0.838953597859650    0.819866983717272    0.865493215948240  0.0000
  O1     O1        0.632438514596948    0.247177577476905    0.838385225946990  0.0000
  O3     O3        0.114205522290331    0.786223684279808    0.140481006251658  0.0000
  O3     O3        0.326818641504870    0.432840803881448    0.100512604288126  0.0000
  O1     O1        0.614009060201709    0.486616407741111    0.024917851665065  0.0000
  O1     O1        0.888878899506588    0.518604521924065    0.018302971474512  0.0000
  O3     O3        0.372929576108036    0.686351247031925    0.922320102695106  0.0000
  O3     O3        0.122762922345548    0.623382775411423    0.940571208747152  0.0000
  O1     O1        0.751620413477951    0.388660224452297    0.952181139049283  0.0000
  O1     O1        0.749190015860470    0.701425788285765    0.074663876750834  0.0000
  O1     O1        0.252580936482778    0.434770676221979    0.874730937674505  0.0000
  O2     O2        0.244617049617364    0.785755095286110    0.015483637586295  0.0000
