data_c00292.vasp
_audit_creation_method             Generated by GULP
_audit_author_name                 Salvador R. G. Balestra
_symmetry_space_group_name_H-M     'P 1             '
_symmetry_Int_Tables_number        1

loop_
_symmetry_equiv_pos_site_id
_symmetry_equiv_pos_as_xyz
_cell_length_a                       17.6450
_cell_length_b                        7.8026
_cell_length_c                       10.2588
_cell_angle_alpha                   88.9005
_cell_angle_beta                    90.6476
_cell_angle_gamma                   90.8603

loop_
_atom_site_label
_atom_site_type_symbol
_atom_site_fract_x
_atom_site_fract_y
_atom_site_fract_z
_atom_site_charge
  Ge     Ge        0.052090000000021    0.000000000000000    0.372269999999958  0.0000
  Ge     Ge        0.443200623152419    0.055704224732605    0.352206139815147  0.0000
  Ge     Ge        0.947476904235818    0.077771655257589    0.618768898758316  0.0000
  Ge     Ge        0.541767987504766    0.037349832318828    0.614608651168638  0.0000
  Ge     Ge        0.556434698017210    0.016868661044472    0.120653525857200  0.0000
  Ge     Ge        0.943093314149005    0.075646022675237    0.121904718535450  0.0000
  Ge     Ge        0.441268840818797    0.078270609160731    0.877849400848570  0.0000
  Ge     Ge        0.174508952598809    0.284562850037713    0.257309160950327  0.0000
  Ge     Ge        0.326988966510543    0.758437322668611    0.253041914443023  0.0000
  Ge     Ge        0.848513726689235    0.392667357445952    0.688102146433190  0.0000
  Ge     Ge        0.642226822525628    0.719433186029319    0.684932715037924  0.0000
  Ge     Ge        0.821179456600773    0.797185470480825    0.683982754370447  0.0000
  Ge     Ge        0.668546285610259    0.311287397332416    0.690326698013042  0.0000
  Ge     Ge        0.143640544283493    0.686565575419252    0.260501214230764  0.0000
  Ge     Ge        0.671690334722645    0.313760464230464    0.005506776281397  0.0000
  Ge     Ge        0.822459555136397    0.795971084868388    0.001740629624061  0.0000
  Ge     Ge        0.140564844196263    0.707776060659477    0.944027460279631  0.0000
  Ge     Ge        0.322551784133878    0.778408138996090    0.941067203669089  0.0000
  Ge     Ge        0.163426429664407    0.303992626819686    0.934594060725476  0.0000
  Ge     Ge        0.852028159097614    0.394282723685951    0.006009332217502  0.0000
  Si     Si        0.043333793987219    0.017521460483611    0.874679973474827  0.0000
  Si     Si        0.346810396317123    0.365407655355164    0.239571466039345  0.0000
  Si     Si        0.335750165293862    0.384563777690721    0.928255160603238  0.0000
  Si     Si        0.646603755657229    0.713866203720106    0.995904779146639  0.0000
  O1     O1        0.131466969507079    0.122339306202088    0.341533690768972  0.0000
  O1     O1        0.374328835816391    0.900238784383611    0.351037977552335  0.0000
  O1     O1        0.913333422699955    0.281334651430288    0.600376587313946  0.0000
  O1     O1        0.573545779233861    0.830385864340686    0.602198389159157  0.0000
  O1     O1        0.873994693071201    0.936010719457137    0.590142741312875  0.0000
  O1     O1        0.618169884591572    0.174940320274613    0.593444001877240  0.0000
  O1     O1        0.078286476789996    0.792088151242796    0.350729346264680  0.0000
  O3     O3        0.417204877819722    0.252777478589112    0.283349348613063  0.0000
  O1     O1        0.025204000826231    0.034497139208472    0.530167891740237  0.0000
  O1     O1        0.467457715675612    0.082736198218075    0.513934917439709  0.0000
  O1     O1        0.974196322847418    0.056479099384499    0.280085100781925  0.0000
  O1     O1        0.525940705187891    0.999682560780339    0.278996601396075  0.0000
  O3     O3        0.971886149989421    0.053853758916066    0.783948464966945  0.0000
  O1     O1        0.514189913333092    0.064308915606462    0.773768482311768  0.0000
  O1     O1        0.625568911229253    0.172667591646429    0.107720798568523  0.0000
  O1     O1        0.864554668156284    0.948080235297440    0.096286170402440  0.0000
  O3     O3        0.402665578949061    0.283232936251229    0.865494246987003  0.0000
  O3     O3        0.078001889440144    0.831060155048027    0.852704582913026  0.0000
  O1     O1        0.372829640322744    0.923854690590956    0.848591489406055  0.0000
  O3     O3        0.108940263744564    0.160395310963083    0.848683356428868  0.0000
  O3     O3        0.586027892250107    0.815323834309416    0.077567905617803  0.0000
  O1     O1        0.919525421651784    0.285444786866184    0.093671506757992  0.0000
  O1     O1        0.475964130558191    0.065999434242824    0.034019673496022  0.0000
  O3     O3        0.018241528735589    0.020024569638390    0.025639990362832  0.0000
  O1     O1        0.152483753347059    0.480546297147908    0.319007196249806  0.0000
  O3     O3        0.346672015856686    0.549438700539676    0.306292700150057  0.0000
  O1     O1        0.834071462805259    0.593344655426351    0.625546999834556  0.0000
  O1     O1        0.654036861332042    0.517387564033773    0.630467958431372  0.0000
  O3     O3        0.271399351506276    0.255178701784973    0.272829581872769  0.0000
  O1     O1        0.231235513236835    0.787170252006306    0.261908015638781  0.0000
  O1     O1        0.764327353834016    0.276292398366546    0.689608551587980  0.0000
  O1     O1        0.725944132936696    0.836208701751369    0.675468803455640  0.0000
  O1     O1        0.144799198654561    0.279986442383512    0.097473262329381  0.0000
  O1     O1        0.357698080848485    0.799326780708364    0.097279085102140  0.0000
  O1     O1        0.879418203386769    0.413404706014933    0.846408613995558  0.0000
  O3     O3        0.617368057856289    0.697880176176469    0.847933223843935  0.0000
  O1     O1        0.852097437053424    0.810327816228236    0.843508019011644  0.0000
  O1     O1        0.638516386117941    0.288646143004792    0.849601860710572  0.0000
  O1     O1        0.111390485462973    0.681571239902021    0.102120509952673  0.0000
  O2     O2        0.342819940031347    0.413728811874103    0.085023440933187  0.0000
  O3     O3        0.659183337277031    0.524323313272707    0.054623132705258  0.0000
  O1     O1        0.843106760071405    0.596372306359773    0.065614951739063  0.0000
  O3     O3        0.332080650775685    0.576903756798778    0.872270191324696  0.0000
  O1     O1        0.144306559622038    0.508479024200868    0.879146619052094  0.0000
  O1     O1        0.767410080636376    0.281357021908422    0.011779702296853  0.0000
  O3     O3        0.725148541438723    0.822464916768536    0.998537135491106  0.0000
  O3     O3        0.258896651774735    0.274235616963147    0.906342041969384  0.0000
  O1     O1        0.227007190665070    0.813534820829496    0.944765012391168  0.0000
