data_c00217.vasp
_audit_creation_method             Generated by GULP
_audit_author_name                 Salvador R. G. Balestra
_symmetry_space_group_name_H-M     'P 1             '
_symmetry_Int_Tables_number        1

loop_
_symmetry_equiv_pos_site_id
_symmetry_equiv_pos_as_xyz
_cell_length_a                       17.6361
_cell_length_b                        7.8794
_cell_length_c                       10.1560
_cell_angle_alpha                   88.1373
_cell_angle_beta                    91.1258
_cell_angle_gamma                   88.0456

loop_
_atom_site_label
_atom_site_type_symbol
_atom_site_fract_x
_atom_site_fract_y
_atom_site_fract_z
_atom_site_charge
  Ge     Ge        0.052090000000021    0.000000000000000    0.372269999999958  0.0000
  Ge     Ge        0.445375539420723    0.950348595597105    0.370537558254585  0.0000
  Ge     Ge        0.940945375097514    0.970041507957649    0.619428931879973  0.0000
  Ge     Ge        0.551015331955161    0.018989303573968    0.621480116788335  0.0000
  Ge     Ge        0.555787417237586    0.014064225127503    0.129390547166193  0.0000
  Ge     Ge        0.943715634803172    0.964208737984227    0.119522955457250  0.0000
  Ge     Ge        0.448401999745217    0.966550389168006    0.875263712473861  0.0000
  Ge     Ge        0.046983134328029    0.030028177363073    0.871566757509460  0.0000
  Ge     Ge        0.148368015137145    0.314829062105412    0.255303032454304  0.0000
  Ge     Ge        0.354701623405761    0.635686334628868    0.258422813444448  0.0000
  Ge     Ge        0.826819827978436    0.269640463925464    0.688562333234217  0.0000
  Ge     Ge        0.643673055790881    0.335229478714279    0.688634037095061  0.0000
  Ge     Ge        0.171897243922067    0.712285252348523    0.261390214090638  0.0000
  Ge     Ge        0.648661827019955    0.325954402472942    0.007063232222694  0.0000
  Ge     Ge        0.854312352146856    0.652066325902669    0.997798478874357  0.0000
  Ge     Ge        0.324152323537573    0.254169530858893    0.939036929727982  0.0000
  Ge     Ge        0.170524801058222    0.736628516717051    0.942499111366956  0.0000
  Ge     Ge        0.351304222495359    0.653370225506930    0.940862043825803  0.0000
  Ge     Ge        0.145049213163821    0.337471727872370    0.933018963906157  0.0000
  Ge     Ge        0.673572517375288    0.726174631126356    0.005692331158447  0.0000
  Si     Si        0.667525200021147    0.725167514031707    0.692957698041954  0.0000
  Si     Si        0.844662725354810    0.660726112967707    0.687026130695202  0.0000
  Si     Si        0.327243744087584    0.243951259486624    0.253003081790346  0.0000
  Si     Si        0.828777179380997    0.256938515708230    0.000270923213833  0.0000
  O1     O1        0.084798978121932    0.199596951488167    0.341491536072935  0.0000
  O1     O1        0.417584403985258    0.746173358548650    0.351144249209981  0.0000
  O1     O1        0.876111692002610    0.135957637633593    0.590559032344088  0.0000
  O3     O3        0.626097959935427    0.871521234572283    0.603858503080032  0.0000
  O3     O3        0.894493479575158    0.781864686763077    0.596949003684609  0.0000
  O1     O1        0.584230565875820    0.218894740081083    0.593716769516658  0.0000
  O1     O1        0.125779180773253    0.856562772682940    0.356133113508131  0.0000
  O3     O3        0.370876580146978    0.092998881675696    0.334848842443835  0.0000
  O1     O1        0.021701613911023    0.986370297427024    0.532938713500121  0.0000
  O1     O1        0.471945518948139    0.973686818415777    0.533470675896503  0.0000
  O1     O1        0.971240043701959    0.961378193305416    0.282579175162281  0.0000
  O1     O1        0.527402087922815    0.994230847581963    0.289865886211720  0.0000
  O1     O1        0.968625194112028    0.983743738112564    0.782601789916067  0.0000
  O1     O1        0.525342689956649    0.008399331388150    0.784880666966139  0.0000
  O1     O1        0.588583476961839    0.215222609407022    0.103812733956399  0.0000
  O1     O1        0.920174957640990    0.759793655535697    0.082950441715596  0.0000
  O1     O1        0.375438675258825    0.116116985180310    0.848757908096112  0.0000
  O1     O1        0.120913016725961    0.885913800099219    0.848473219044861  0.0000
  O1     O1        0.413101588964348    0.769287065853250    0.849783961784152  0.0000
  O1     O1        0.079961355650199    0.230890787258363    0.843001372545219  0.0000
  O1     O1        0.629580553996264    0.875170205072038    0.096768480884199  0.0000
  O3     O3        0.868951552725097    0.110012462692263    0.091560362807366  0.0000
  O1     O1        0.476147976471165    0.974180360896606    0.038856355613156  0.0000
  O1     O1        0.022263825091512    0.020242583679835    0.035382727241166  0.0000
  O1     O1        0.155455819649254    0.510590289900230    0.321607199862493  0.0000
  O3     O3        0.344936365586524    0.426209819016879    0.313593366248591  0.0000
  O3     O3        0.842358962847333    0.475446221782660    0.629765509393387  0.0000
  O3     O3        0.646987552804348    0.544647927070997    0.633932432463465  0.0000
  O3     O3        0.237668797510329    0.213375875813134    0.255978200634611  0.0000
  O1     O1        0.267823748297199    0.739780642864277    0.263833651777003  0.0000
  O1     O1        0.732049490851366    0.237138415727641    0.681239323318223  0.0000
  O2     O2        0.758819727787380    0.740806846598756    0.697613177763515  0.0000
  O1     O1        0.118232966797933    0.344581825745286    0.094880922040525  0.0000
  O1     O1        0.386259274446401    0.634543808096979    0.100523591121724  0.0000
  O3     O3        0.858557219711795    0.245343040061209    0.851540943525712  0.0000
  O3     O3        0.640269568638673    0.735408635636542    0.843080655598696  0.0000
  O3     O3        0.880062873563135    0.650701380311284    0.834240907537530  0.0000
  O1     O1        0.613417853232368    0.330709936265496    0.848067796369568  0.0000
  O1     O1        0.138298594271275    0.737700371566119    0.101698678305165  0.0000
  O3     O3        0.354888335635200    0.245955592591860    0.102962148265899  0.0000
  O1     O1        0.654555883263573    0.525891603455616    0.065632617866538  0.0000
  O3     O3        0.847557832812066    0.442631817817941    0.053160098880989  0.0000
  O1     O1        0.338495204138002    0.458435136708448    0.878873690745832  0.0000
  O1     O1        0.156497917086447    0.539931120898639    0.875992510208103  0.0000
  O3     O3        0.738959389985478    0.232353803500897    0.000298204511239  0.0000
  O1     O1        0.768769364912835    0.756936965011367    0.014814014855442  0.0000
  O1     O1        0.229515007779066    0.219312346478789    0.929827361749169  0.0000
  O1     O1        0.266054135501281    0.767423773718362    0.946196813801542  0.0000
