data_c00214.vasp
_audit_creation_method             Generated by GULP
_audit_author_name                 Salvador R. G. Balestra
_symmetry_space_group_name_H-M     'P 1             '
_symmetry_Int_Tables_number        1

loop_
_symmetry_equiv_pos_site_id
_symmetry_equiv_pos_as_xyz
_cell_length_a                       17.6253
_cell_length_b                        7.8391
_cell_length_c                       10.2806
_cell_angle_alpha                   89.0991
_cell_angle_beta                    90.6248
_cell_angle_gamma                   88.3687

loop_
_atom_site_label
_atom_site_type_symbol
_atom_site_fract_x
_atom_site_fract_y
_atom_site_fract_z
_atom_site_charge
  Ge     Ge        0.052090000000021    0.000000000000000    0.372269999999958  0.0000
  Ge     Ge        0.455468659934646    0.945612928043248    0.340779013982129  0.0000
  Ge     Ge        0.946771672302446    0.966064060174587    0.627870322272402  0.0000
  Ge     Ge        0.558376924663654    0.013908592266766    0.592520253555382  0.0000
  Ge     Ge        0.557774095188997    0.018045184630159    0.086494974220163  0.0000
  Ge     Ge        0.946901367693903    0.963817582783359    0.120736928960961  0.0000
  Ge     Ge        0.450783283051710    0.957347906697038    0.836500730541500  0.0000
  Ge     Ge        0.054828813707551    0.022402185048111    0.878056643388762  0.0000
  Ge     Ge        0.148716389589454    0.313863257085584    0.259857845812596  0.0000
  Ge     Ge        0.356857831475647    0.632806645071591    0.273591563497427  0.0000
  Ge     Ge        0.830586475102255    0.262595862280396    0.700945404085807  0.0000
  Ge     Ge        0.647053181145989    0.333065039781336    0.706695071179217  0.0000
  Ge     Ge        0.176456728038568    0.715796835897120    0.265336966654246  0.0000
  Ge     Ge        0.329712636376804    0.231083526929251    0.267507526617698  0.0000
  Ge     Ge        0.656085186762554    0.330805283124116    0.023480217878739  0.0000
  Ge     Ge        0.330454771727628    0.241101822963698    0.951884698523168  0.0000
  Ge     Ge        0.179491393581385    0.733688769596142    0.949114119721955  0.0000
  Ge     Ge        0.359313973427103    0.643838079734542    0.956662650848349  0.0000
  Ge     Ge        0.151158063990610    0.334277367721568    0.943673020500415  0.0000
  Ge     Ge        0.681265441074478    0.728590775680181    0.016731968640117  0.0000
  Si     Si        0.673421257616928    0.724401333609910    0.706759466580385  0.0000
  Si     Si        0.849944292959602    0.657562427186762    0.699459795257495  0.0000
  Si     Si        0.857705416603309    0.656447586998405    0.001533800382349  0.0000
  Si     Si        0.834935535794914    0.261148529262779    0.007739691739273  0.0000
  O1     O1        0.080828111288144    0.203717092977022    0.340718230967805  0.0000
  O1     O1        0.422261786479444    0.743507454536789    0.361499261971446  0.0000
  O1     O1        0.879246870673052    0.126297455505809    0.602981962928984  0.0000
  O3     O3        0.635994307067229    0.879839825842360    0.626196011777187  0.0000
  O3     O3        0.902946428400381    0.771437318066906    0.611499897751126  0.0000
  O1     O1        0.583073707008024    0.220753346109834    0.618224492240789  0.0000
  O1     O1        0.127516818034157    0.860036029610102    0.357222002809428  0.0000
  O1     O1        0.380739647533062    0.087862532704028    0.362900530651663  0.0000
  O1     O1        0.023542962117765    0.985765620272993    0.532171091434534  0.0000
  O1     O1        0.533653488871565    0.989161059621614    0.431848470142573  0.0000
  O1     O1        0.973235512863537    0.951602376283470    0.281605874866877  0.0000
  O1     O1        0.483251268657471    0.967348931462101    0.179940657446223  0.0000
  O1     O1        0.977725790971954    0.980432092245389    0.786408236981829  0.0000
  O1     O1        0.479075807246012    0.961049574960511    0.676832257051777  0.0000
  O1     O1        0.595908768973136    0.213997560125013    0.115801332694271  0.0000
  O3     O3        0.919206285547485    0.759125412482924    0.079834744934062  0.0000
  O1     O1        0.374277483702423    0.094461695426992    0.855175203399488  0.0000
  O1     O1        0.129707292202061    0.879937786605471    0.855820428415574  0.0000
  O1     O1        0.427207933772169    0.751523774789259    0.874519099483639  0.0000
  O1     O1        0.087683092913571    0.224644041435463    0.852366297415429  0.0000
  O1     O1        0.634245826930574    0.876198739199129    0.104910069419576  0.0000
  O3     O3        0.878767060171454    0.126764633949828    0.101514268447348  0.0000
  O1     O1        0.527045989968188    0.019026937442404    0.926865572160155  0.0000
  O1     O1        0.027400732635108    0.009652118198299    0.038996795963861  0.0000
  O1     O1        0.162093191290433    0.511968178194196    0.323728317799453  0.0000
  O1     O1        0.344077933267355    0.431008702445697    0.331210323586304  0.0000
  O3     O3        0.850365638048231    0.467934565340426    0.647869613525092  0.0000
  O3     O3        0.648949463129024    0.543553900243889    0.650667042803222  0.0000
  O1     O1        0.233944052858558    0.198240056930337    0.266373680561103  0.0000
  O1     O1        0.272348279868029    0.749217826612705    0.271673982220660  0.0000
  O1     O1        0.735289014314090    0.236592830582235    0.690523064158106  0.0000
  O2     O2        0.764521299424148    0.738026494817316    0.699693327048519  0.0000
  O1     O1        0.120662785778641    0.348982905227334    0.101599383552294  0.0000
  O1     O1        0.387379422422426    0.616257447546999    0.115827399118060  0.0000
  O3     O3        0.861997781222542    0.231857770802948    0.860900117070502  0.0000
  O3     O3        0.648713676953229    0.735901718064883    0.856594542817476  0.0000
  O2     O2        0.880096504293424    0.657693676447283    0.849302457021621  0.0000
  O1     O1        0.621573699549793    0.334022816386591    0.866044302756761  0.0000
  O1     O1        0.146603358999545    0.738198396203013    0.106163687617137  0.0000
  O1     O1        0.362831040235810    0.220615974976220    0.110239010300237  0.0000
  O1     O1        0.661158453584558    0.531452035650485    0.081424387829241  0.0000
  O2     O2        0.851008382311320    0.458498485888283    0.047758123978378  0.0000
  O1     O1        0.346882834210669    0.445098332285672    0.894416483608794  0.0000
  O1     O1        0.165656128421986    0.534002645839680    0.884283418075692  0.0000
  O3     O3        0.745718615827352    0.233037222780412    0.016793229308457  0.0000
  O3     O3        0.777882303513762    0.755677210878292    0.022135694118094  0.0000
  O1     O1        0.234658077765640    0.213427426987497    0.950666277328202  0.0000
  O1     O1        0.275453932312463    0.763562490337946    0.950461224105273  0.0000
