data_c00251.vasp
_audit_creation_method             Generated by GULP
_audit_author_name                 Salvador R. G. Balestra
_symmetry_space_group_name_H-M     'P 1             '
_symmetry_Int_Tables_number        1

loop_
_symmetry_equiv_pos_site_id
_symmetry_equiv_pos_as_xyz
_cell_length_a                       17.6680
_cell_length_b                        7.8717
_cell_length_c                       10.0742
_cell_angle_alpha                   92.1491
_cell_angle_beta                    90.6755
_cell_angle_gamma                   91.4599

loop_
_atom_site_label
_atom_site_type_symbol
_atom_site_fract_x
_atom_site_fract_y
_atom_site_fract_z
_atom_site_charge
  Ge     Ge        0.052090000000021    0.000000000000000    0.372269999999958  0.0000
  Ge     Ge        0.439639439701935    0.046435928418206    0.418974580034972  0.0000
  Ge     Ge        0.936569520464684    0.009991606698029    0.614999423134976  0.0000
  Ge     Ge        0.548078690758927    0.969516163536889    0.664787604045039  0.0000
  Ge     Ge        0.548133440045379    0.985540924732068    0.171372667556243  0.0000
  Ge     Ge        0.945622670197012    0.045099939630107    0.118475880301722  0.0000
  Ge     Ge        0.443390891604759    0.035128657713777    0.916480616654850  0.0000
  Ge     Ge        0.047798184059206    0.979593180371572    0.864934815293575  0.0000
  Ge     Ge        0.167220572313316    0.297102216643994    0.309112130092413  0.0000
  Ge     Ge        0.640543169645266    0.649430743465575    0.725373198109007  0.0000
  Ge     Ge        0.823999269176616    0.714921577240721    0.725174923912503  0.0000
  Ge     Ge        0.351044963126778    0.364564056995952    0.306263743420095  0.0000
  Ge     Ge        0.668084968300901    0.269486205474153    0.049537736168269  0.0000
  Ge     Ge        0.822922538273885    0.752739731938274    0.045234986210798  0.0000
  Ge     Ge        0.347746489842692    0.350683971921457    0.984897821204615  0.0000
  Ge     Ge        0.141256703515021    0.676526926965327    0.990261954073680  0.0000
  Ge     Ge        0.320064982975730    0.751214687961931    0.984524180135918  0.0000
  Ge     Ge        0.167308633770785    0.271821740435906    0.987973114731018  0.0000
  Ge     Ge        0.642211067700816    0.674035884398515    0.046101793365347  0.0000
  Ge     Ge        0.845786297063753    0.349990014895108    0.054029550076542  0.0000
  Si     Si        0.325720963404061    0.754232281640717    0.299106349732756  0.0000
  Si     Si        0.841899774712427    0.324168754868672    0.737335898513052  0.0000
  Si     Si        0.665457631334080    0.260118428746652    0.733866838759866  0.0000
  Si     Si        0.149088358704757    0.687135092872889    0.305396683810162  0.0000
  O1     O1        0.116884480112845    0.162670514635271    0.406638913890640  0.0000
  O3     O3        0.362652416424810    0.910815074657234    0.383388766778546  0.0000
  O3     O3        0.896777461261546    0.202828147532938    0.656365268452974  0.0000
  O1     O1        0.580670003125138    0.768902985005061    0.632660659921517  0.0000
  O1     O1        0.870903404256153    0.847969889633077    0.622013095155665  0.0000
  O3     O3        0.624049339466808    0.112540261504108    0.645754883593586  0.0000
  O3     O3        0.098077645973021    0.810251478809896    0.394064895405888  0.0000
  O1     O1        0.412546370106525    0.251602969468290    0.399770983469783  0.0000
  O1     O1        0.968939442156026    0.018754883782305    0.454452757895162  0.0000
  O1     O1        0.467851060287824    0.019884549210829    0.581217382887787  0.0000
  O1     O1        0.024976193368229    0.006985762208944    0.207115993854847  0.0000
  O1     O1        0.520281542505459    0.997933697481420    0.334474277031070  0.0000
  O1     O1        0.018472541052977    0.975432702136567    0.701647116604205  0.0000
  O1     O1        0.521525763465095    0.984399551485612    0.829479987541767  0.0000
  O1     O1        0.620788243540025    0.128740039075194    0.143782955985805  0.0000
  O1     O1        0.873296616458536    0.898630477929908    0.141551423142102  0.0000
  O1     O1        0.409284557193615    0.234069008142473    0.890485759768228  0.0000
  O1     O1        0.072630709308439    0.777515182291426    0.906569848021977  0.0000
  O1     O1        0.369986532658031    0.888220623853035    0.891157447699328  0.0000
  O1     O1        0.123052408158638    0.120086289454111    0.887472211662646  0.0000
  O1     O1        0.578194800224914    0.782522429561703    0.139643199578114  0.0000
  O1     O1        0.911507054387256    0.247064074556512    0.144146354852036  0.0000
  O1     O1        0.469224573066552    0.032302455975898    0.082249578742802  0.0000
  O1     O1        0.970458606504875    0.038520612331847    0.953305225453070  0.0000
  O3     O3        0.151568668438948    0.504152157141492    0.367493459520235  0.0000
  O3     O3        0.347658619435665    0.576615747285104    0.361810463546884  0.0000
  O3     O3        0.839172999205642    0.506174448568014    0.671470002302254  0.0000
  O3     O3        0.645210277434018    0.439222173319335    0.670912140636456  0.0000
  O1     O1        0.262774831078322    0.268878778142044    0.315837779825367  0.0000
  O2     O2        0.234356447589714    0.767635301490661    0.294170943866544  0.0000
  O2     O2        0.756540891177999    0.240446080062746    0.738446696169153  0.0000
  O1     O1        0.728615264794116    0.745811486383489    0.721295345058324  0.0000
  O1     O1        0.135153088093195    0.263433246232344    0.148204804195449  0.0000
  O3     O3        0.353606941048410    0.759962030938695    0.148127120722553  0.0000
  O3     O3        0.870789452366513    0.355791317483042    0.887377740548663  0.0000
  O1     O1        0.608820076543268    0.654620449217015    0.885397551829726  0.0000
  O1     O1        0.856111404775678    0.756799259892339    0.884688895857286  0.0000
  O3     O3        0.636593870859044    0.255137750216627    0.884947707180621  0.0000
  O3     O3        0.116234517222533    0.667262539101527    0.156028747550753  0.0000
  O1     O1        0.381618684957979    0.365014440460187    0.146298752437667  0.0000
  O1     O1        0.654261101968361    0.475757169424200    0.106028469836583  0.0000
  O1     O1        0.835969793186899    0.554416266398949    0.109253439810577  0.0000
  O1     O1        0.334800204832995    0.546396355595828    0.923989283425059  0.0000
  O1     O1        0.151218222602868    0.472128416864651    0.930780738008783  0.0000
  O1     O1        0.762598398413916    0.232364960284720    0.060520417401378  0.0000
  O1     O1        0.727537312786608    0.785996335242663    0.044828765724977  0.0000
  O1     O1        0.262637074708061    0.239521586154119    0.990495506958253  0.0000
  O1     O1        0.225506669662333    0.789366419069289    0.976523541500778  0.0000
