data_c00272.vasp
_audit_creation_method             Generated by GULP
_audit_author_name                 Salvador R. G. Balestra
_symmetry_space_group_name_H-M     'P 1             '
_symmetry_Int_Tables_number        1

loop_
_symmetry_equiv_pos_site_id
_symmetry_equiv_pos_as_xyz
_cell_length_a                       17.6536
_cell_length_b                        7.7766
_cell_length_c                       10.5006
_cell_angle_alpha                   90.2969
_cell_angle_beta                    89.7952
_cell_angle_gamma                   91.3356

loop_
_atom_site_label
_atom_site_type_symbol
_atom_site_fract_x
_atom_site_fract_y
_atom_site_fract_z
_atom_site_charge
  Ge     Ge        0.052090000000021    0.000000000000000    0.372269999999958  0.0000
  Ge     Ge        0.457602579167806    0.981288100889208    0.402998384979020  0.0000
  Ge     Ge        0.960169081676937    0.028740348046480    0.636924940445004  0.0000
  Ge     Ge        0.560245177870072    0.986345611446271    0.658919553364959  0.0000
  Ge     Ge        0.566449382249152    0.958364927629018    0.161140140863464  0.0000
  Ge     Ge        0.952995829215459    0.988736686316680    0.105181371887730  0.0000
  Ge     Ge        0.457023906153076    0.973978718938344    0.912288927209544  0.0000
  Ge     Ge        0.155244219002177    0.316338206213084    0.300000282217939  0.0000
  Ge     Ge        0.355955266610968    0.667412383384205    0.285225186053365  0.0000
  Ge     Ge        0.865969542667505    0.342806623726506    0.727994135777906  0.0000
  Ge     Ge        0.657265921400028    0.673821661574847    0.750036429090480  0.0000
  Ge     Ge        0.837322998802258    0.743367693723374    0.753786983401023  0.0000
  Ge     Ge        0.685162081912115    0.266968045143638    0.725375514380618  0.0000
  Ge     Ge        0.176930704152327    0.728582367001274    0.289609441122924  0.0000
  Ge     Ge        0.333198624170914    0.255351321924540    0.294706341225964  0.0000
  Ge     Ge        0.685506077024325    0.235298503084989    0.031064804697214  0.0000
  Ge     Ge        0.331312043633739    0.244678179687893    0.985476504979482  0.0000
  Ge     Ge        0.174062540933223    0.700718279246335    0.980949039646230  0.0000
  Ge     Ge        0.356761716420216    0.650037530211310    0.973134352922500  0.0000
  Ge     Ge        0.657344931904412    0.643646468873371    0.056467265247268  0.0000
  Si     Si        0.064457278478012    0.983055435695292    0.874751239962633  0.0000
  Si     Si        0.833254594821969    0.699728597453783    0.056634172331436  0.0000
  Si     Si        0.153256687372729    0.298676556478119    0.996887911310615  0.0000
  Si     Si        0.860845240792147    0.310801161933429    0.031366352525531  0.0000
  O1     O1        0.087981583182205    0.206782549699654    0.386477271742762  0.0000
  O1     O1        0.424221538652701    0.777424395090135    0.368892878271850  0.0000
  O1     O1        0.933418705028066    0.239406988626184    0.641742851668173  0.0000
  O1     O1        0.593919018521412    0.781686400279648    0.659159728154469  0.0000
  O1     O1        0.880260117315340    0.917658450984328    0.685445459624128  0.0000
  O1     O1        0.633993081906596    0.129007594378469    0.629049288388309  0.0000
  O1     O1        0.125999519129678    0.860686508167675    0.385047974520650  0.0000
  O1     O1        0.386716698752842    0.125727357476772    0.386356941071234  0.0000
  O1     O1        0.983725223580018    0.967337172742410    0.485149499573284  0.0000
  O1     O1        0.485297542620964    0.998920588706283    0.558698223094157  0.0000
  O1     O1        0.018395789966767    0.967994806712149    0.220672893683317  0.0000
  O1     O1        0.537168078193511    0.015476527532402    0.310967792774130  0.0000
  O3     O3        0.039681720459471    0.996534415130823    0.729023823340972  0.0000
  O1     O1        0.525937768700964    0.036788671919547    0.809321461735467  0.0000
  O1     O1        0.646404529406137    0.077314770755476    0.122378578184856  0.0000
  O3     O3        0.881295786904318    0.837068273065180    0.137473145370534  0.0000
  O1     O1        0.376567087884790    0.095175376717476    0.898392491662261  0.0000
  O3     O3        0.126684443782597    0.837698290073190    0.881642823962117  0.0000
  O1     O1        0.423823788473199    0.765715077064581    0.889213799390919  0.0000
  O2     O2        0.093649920829467    0.170348084738871    0.926011765165342  0.0000
  O1     O1        0.594143206158821    0.746807338446723    0.152274007301116  0.0000
  O3     O3        0.919717583114012    0.196847521171381    0.107547149225966  0.0000
  O1     O1        0.491478067064842    0.001118711644505    0.064092530980257  0.0000
  O3     O3        0.990728440439484    0.931888900645778    0.958333037533631  0.0000
  O1     O1        0.166941656690676    0.522605866144130    0.350111006997744  0.0000
  O1     O1        0.342351292045430    0.465899136889385    0.346036191837187  0.0000
  O1     O1        0.886455839835975    0.559363361674770    0.724204244919146  0.0000
  O1     O1        0.638889346601331    0.457545792404193    0.738364114794329  0.0000
  O1     O1        0.238195691270222    0.204506908150296    0.305534089696350  0.0000
  O1     O1        0.272224089676773    0.778138802315660    0.288888938643394  0.0000
  O1     O1        0.775522272534829    0.307241883660936    0.670609866989792  0.0000
  O1     O1        0.747203222342802    0.719097250906717    0.694923638228821  0.0000
  O3     O3        0.126646308287661    0.321653936099070    0.141306438533152  0.0000
  O1     O1        0.385219889983454    0.651830508681619    0.129824647296594  0.0000
  O3     O3        0.867187385923426    0.263771886322972    0.882451019847909  0.0000
  O1     O1        0.646719565641005    0.732506714758737    0.907722644310219  0.0000
  O3     O3        0.823872540816198    0.773988311145412    0.915029298356491  0.0000
  O1     O1        0.688798364788719    0.175019693938429    0.874105159254226  0.0000
  O1     O1        0.145094523921516    0.732944192171046    0.134394598143253  0.0000
  O1     O1        0.363411901496486    0.241105975100894    0.139744987595458  0.0000
  O1     O1        0.638325395179002    0.426211204474017    0.048392959213917  0.0000
  O2     O2        0.876676908322260    0.516713684805661    0.048371096356560  0.0000
  O1     O1        0.349871598574313    0.443416729220266    0.919272667274229  0.0000
  O3     O3        0.158190320272816    0.486627702158193    0.934202793525747  0.0000
  O3     O3        0.777524278212695    0.268774056961906    0.083676415628317  0.0000
  O3     O3        0.749685471575739    0.670089390042237    0.113101794262898  0.0000
  O3     O3        0.234318844932587    0.209096517855805    0.991533881951685  0.0000
  O1     O1        0.269070373248084    0.743252459612385    0.967789355322091  0.0000
