data_c00283.vasp
_audit_creation_method             Generated by GULP
_audit_author_name                 Salvador R. G. Balestra
_symmetry_space_group_name_H-M     'P 1             '
_symmetry_Int_Tables_number        1

loop_
_symmetry_equiv_pos_site_id
_symmetry_equiv_pos_as_xyz
_cell_length_a                       17.7453
_cell_length_b                        7.8674
_cell_length_c                       10.4614
_cell_angle_alpha                   90.0814
_cell_angle_beta                    90.9703
_cell_angle_gamma                   89.8824

loop_
_atom_site_label
_atom_site_type_symbol
_atom_site_fract_x
_atom_site_fract_y
_atom_site_fract_z
_atom_site_charge
  Ge     Ge        0.052090000000021    0.000000000000000    0.372269999999958  0.0000
  Ge     Ge        0.446912668951168    0.976467588366556    0.354462613612602  0.0000
  Ge     Ge        0.949949106543175    0.017300216071299    0.625978830982111  0.0000
  Ge     Ge        0.545977723272759    0.987673342842202    0.614535453790478  0.0000
  Ge     Ge        0.555109880521864    0.987771915645533    0.112290903258877  0.0000
  Ge     Ge        0.940442784385072    0.018448391958025    0.125997156894370  0.0000
  Ge     Ge        0.442050744988416    0.983332566323219    0.868781631023398  0.0000
  Ge     Ge        0.154528532052571    0.307056699226563    0.256911323401446  0.0000
  Ge     Ge        0.347954802457751    0.663072854946357    0.247642254844619  0.0000
  Ge     Ge        0.848397528313839    0.329540649681638    0.699664743814270  0.0000
  Ge     Ge        0.648536432767103    0.675162499975124    0.688618686602981  0.0000
  Ge     Ge        0.827597131043608    0.735885454189889    0.694114521982951  0.0000
  Ge     Ge        0.668500867574951    0.266918753474227    0.693534530799090  0.0000
  Ge     Ge        0.167359104088508    0.710749177289272    0.258752766654000  0.0000
  Ge     Ge        0.668514380990355    0.279108126724146    0.002033008191721  0.0000
  Ge     Ge        0.824175628462826    0.739490766363367    0.004086357777489  0.0000
  Ge     Ge        0.320892673738604    0.267464244241800    0.936289462761169  0.0000
  Ge     Ge        0.157196767605579    0.706636145097221    0.949685751292384  0.0000
  Ge     Ge        0.340981363066540    0.668659645947431    0.937627850790883  0.0000
  Ge     Ge        0.849836887844769    0.337229134089186    0.011700133550940  0.0000
  Si     Si        0.045273530291008    0.998448985428528    0.885602897365295  0.0000
  Si     Si        0.329844539231614    0.264142607652263    0.241890128518537  0.0000
  Si     Si        0.143706254870761    0.309258825602974    0.951541047383666  0.0000
  Si     Si        0.647256624209470    0.678503954624663    0.991944857026862  0.0000
  O1     O1        0.091691689142849    0.194217772383015    0.342053450156902  0.0000
  O1     O1        0.410132558230283    0.775732071637891    0.340611093171959  0.0000
  O1     O1        0.910317573379297    0.215017285140363    0.609615563933195  0.0000
  O1     O1        0.583462166581656    0.786799405073788    0.600560049196459  0.0000
  O1     O1        0.880667394537096    0.867134701010251    0.602254184563061  0.0000
  O1     O1        0.617282633944617    0.133509552492419    0.597117596390764  0.0000
  O1     O1        0.118516695491349    0.845333951821403    0.354866977656512  0.0000
  O3     O3        0.380466826877069    0.128859480449458    0.316374853432719  0.0000
  O1     O1        0.024421671997031    0.991295561041353    0.528837651233262  0.0000
  O1     O1        0.471986505942167    0.013415413059712    0.511329768625421  0.0000
  O1     O1        0.972362633849382    0.979162049838034    0.278474495831049  0.0000
  O1     O1        0.527937504323009    0.989599284326010    0.268806779192646  0.0000
  O3     O3        0.977556902404606    0.994058129105414    0.785427676249339  0.0000
  O1     O1        0.513818243376694    0.016836736555715    0.767796894844866  0.0000
  O1     O1        0.620768191051532    0.145701054179808    0.100003487097320  0.0000
  O1     O1        0.862947015176497    0.892710562262824    0.098688818011240  0.0000
  O1     O1        0.367665075342040    0.124540561471372    0.847456041199696  0.0000
  O3     O3        0.104912620559430    0.848333740888555    0.858407383959140  0.0000
  O1     O1        0.401415355270043    0.787010018104529    0.848731741723244  0.0000
  O2     O2        0.085084951306262    0.184439039890462    0.878155299400400  0.0000
  O3     O3        0.589194141287930    0.788094397985351    0.072780750688056  0.0000
  O1     O1        0.912951509064981    0.225695649384429    0.104830794564799  0.0000
  O1     O1        0.475519222062600    0.021595938037659    0.021376896251637  0.0000
  O3     O3        0.013823738382676    0.966040049141591    0.026634537132846  0.0000
  O1     O1        0.159091546958361    0.507509479334717    0.317272965198478  0.0000
  O3     O3        0.341304803233079    0.453935035377859    0.298164217338472  0.0000
  O1     O1        0.837632881127386    0.529755506340240    0.640179457610357  0.0000
  O1     O1        0.657707018929679    0.471689785496549    0.636168343622903  0.0000
  O3     O3        0.242659521265853    0.211991338979463    0.256535514824465  0.0000
  O1     O1        0.261131215697931    0.758885657929329    0.256453896481817  0.0000
  O1     O1        0.763115194674887    0.223328372986862    0.696929458776702  0.0000
  O1     O1        0.732985820758628    0.781962304657015    0.683996847098232  0.0000
  O3     O3        0.122294882037955    0.319543713479829    0.099859211692537  0.0000
  O1     O1        0.376282555902554    0.673382679444669    0.092136026396896  0.0000
  O1     O1        0.879177309215480    0.341448413470935    0.856131662978703  0.0000
  O3     O3        0.617907821583728    0.667639290462933    0.845855172198080  0.0000
  O1     O1        0.857249221854850    0.748923370156421    0.851345985536382  0.0000
  O1     O1        0.636630648147090    0.252295838320325    0.847995847714942  0.0000
  O1     O1        0.130984289142263    0.721715321477010    0.106008786915772  0.0000
  O3     O3        0.352194161955912    0.269618900090624    0.094184698418654  0.0000
  O3     O3        0.655450058738863    0.489961259038937    0.048581619303855  0.0000
  O1     O1        0.843327769403463    0.541856451096316    0.066854202844939  0.0000
  O1     O1        0.336445986784208    0.467462599121673    0.877352542726094  0.0000
  O3     O3        0.142479759500964    0.498817429039241    0.894979424409783  0.0000
  O1     O1        0.763111695757703    0.239366520769939    0.012874867098348  0.0000
  O3     O3        0.727766520771278    0.772158467444002    0.994118299412721  0.0000
  O3     O3        0.225594938831237    0.225609192678560    0.936949835142013  0.0000
  O1     O1        0.250985711155226    0.752211640688867    0.938925302652275  0.0000
