data_c00264.vasp
_audit_creation_method             Generated by GULP
_audit_author_name                 Salvador R. G. Balestra
_symmetry_space_group_name_H-M     'P 1             '
_symmetry_Int_Tables_number        1

loop_
_symmetry_equiv_pos_site_id
_symmetry_equiv_pos_as_xyz
_cell_length_a                       17.7655
_cell_length_b                        7.8364
_cell_length_c                       10.2188
_cell_angle_alpha                   88.8413
_cell_angle_beta                    91.0953
_cell_angle_gamma                   90.9227

loop_
_atom_site_label
_atom_site_type_symbol
_atom_site_fract_x
_atom_site_fract_y
_atom_site_fract_z
_atom_site_charge
  Ge     Ge        0.052090000000021    0.000000000000000    0.372269999999958  0.0000
  Ge     Ge        0.452240545229848    0.030523439260186    0.360165042765039  0.0000
  Ge     Ge        0.951054240579522    0.069209421741855    0.625512210964316  0.0000
  Ge     Ge        0.549975513587301    0.008433603893446    0.623898006506500  0.0000
  Ge     Ge        0.548058380586506    0.975569205213819    0.094472764519289  0.0000
  Ge     Ge        0.950133018550888    0.033916679815936    0.107813204093596  0.0000
  Ge     Ge        0.432676322863441    0.038889665338674    0.847681180308324  0.0000
  Ge     Ge        0.173918376561855    0.284237482748785    0.300272471995683  0.0000
  Ge     Ge        0.328591889995292    0.754082812307027    0.277873010226102  0.0000
  Ge     Ge        0.850928337330377    0.370959993914467    0.728356971745453  0.0000
  Ge     Ge        0.652825628551904    0.696929929373462    0.733202176350451  0.0000
  Ge     Ge        0.825099529360568    0.781084857757350    0.737013591328911  0.0000
  Ge     Ge        0.669517054229678    0.299462066839035    0.718536497088895  0.0000
  Ge     Ge        0.148240609296640    0.688304645219493    0.290735086968133  0.0000
  Ge     Ge        0.351652178337781    0.343826612005326    0.287919502895493  0.0000
  Ge     Ge        0.669908347097856    0.268311618803319    0.033219154301283  0.0000
  Ge     Ge        0.827681106562451    0.740465962416655    0.063369530283010  0.0000
  Ge     Ge        0.141235349313086    0.680837709265849    0.976323858743306  0.0000
  Ge     Ge        0.324465567744923    0.737206785649599    0.963763854295347  0.0000
  Ge     Ge        0.655831619483251    0.661276854579004    0.062359116837905  0.0000
  Si     Si        0.055833675085920    0.002067246181275    0.866681886249999  0.0000
  Si     Si        0.338984833510910    0.339858289656817    0.976219542714458  0.0000
  Si     Si        0.163202277662858    0.288031146925295    0.988149628700554  0.0000
  Si     Si        0.847338510714712    0.340473485962893    0.036104593160944  0.0000
  O1     O1        0.123618057834707    0.147798157137044    0.396888315650912  0.0000
  O1     O1        0.377439978152243    0.889789810837147    0.377222730127454  0.0000
  O1     O1        0.918229255296594    0.271777356930881    0.640588146439075  0.0000
  O1     O1        0.575768395994379    0.815403725973688    0.695235311325014  0.0000
  O1     O1        0.879027959259714    0.930257213621738    0.658551027700712  0.0000
  O1     O1        0.621661323877151    0.154395244336576    0.622927862408441  0.0000
  O1     O1        0.089485893060050    0.799716109255033    0.387733364884560  0.0000
  O1     O1        0.419957271015738    0.235577161769994    0.373605227031425  0.0000
  O1     O1        0.976718810291895    0.034200398641212    0.466945338732099  0.0000
  O1     O1        0.526104211540887    0.981759883251901    0.460133469759662  0.0000
  O1     O1        0.025855601911439    0.029938678923283    0.209840444077414  0.0000
  O1     O1        0.478557375649867    0.012731426904412    0.199097402486105  0.0000
  O3     O3        0.033630358780097    0.036430437182035    0.716230902776971  0.0000
  O1     O1        0.466653476356522    0.066770438065793    0.692101378766493  0.0000
  O1     O1        0.626782568116942    0.103349843331858    0.115882347498997  0.0000
  O1     O1        0.891189282189932    0.864171941831278    0.147059069466519  0.0000
  O3     O3        0.389211178243831    0.225403837172322    0.887424581338198  0.0000
  O3     O3        0.081868705312040    0.807049458178435    0.881663564156503  0.0000
  O1     O1        0.369560370654496    0.871691041713397    0.856423915257897  0.0000
  O2     O2        0.122590901809198    0.131505859094696    0.913845608206241  0.0000
  O1     O1        0.578401458312416    0.766814108176388    0.107851682169049  0.0000
  O3     O3        0.901612109593892    0.222642572805880    0.123652320833328  0.0000
  O1     O1        0.513227523889822    0.002751567252734    0.937727105019220  0.0000
  O3     O3        0.980372714395703    0.027140194085570    0.947436319618600  0.0000
  O1     O1        0.162418183546966    0.488936208625213    0.354546137037704  0.0000
  O1     O1        0.343543161008694    0.548363981559682    0.336436946247723  0.0000
  O1     O1        0.844057185648837    0.579988392877146    0.681330812341542  0.0000
  O1     O1        0.649103857028387    0.501655772509214    0.659840307306681  0.0000
  O1     O1        0.267200260985982    0.235800358648878    0.306785157096671  0.0000
  O1     O1        0.234127743755271    0.793340336145856    0.277249303005368  0.0000
  O1     O1        0.764850614299545    0.269540816459318    0.711347190882462  0.0000
  O1     O1        0.732041497905681    0.815819094821415    0.696139203744799  0.0000
  O3     O3        0.140678910350820    0.286251035607663    0.138553023538882  0.0000
  O1     O1        0.359950392288548    0.770532748633417    0.118627200890438  0.0000
  O3     O3        0.879870905750038    0.365106248856907    0.891283405844680  0.0000
  O1     O1        0.666856087209061    0.637829332357825    0.895341047476556  0.0000
  O1     O1        0.841475948909965    0.795180516340638    0.902037915925066  0.0000
  O1     O1        0.636462355297183    0.261899184752121    0.873950409017658  0.0000
  O1     O1        0.110652242692193    0.681334084491437    0.133744778682694  0.0000
  O3     O3        0.373105257715483    0.344553951661079    0.122272499502114  0.0000
  O1     O1        0.649701257965473    0.451939022677260    0.114056515731499  0.0000
  O3     O3        0.839803654005837    0.524336508222956    0.098791456331480  0.0000
  O3     O3        0.338680890856767    0.529400766551154    0.915582669403424  0.0000
  O3     O3        0.140908592622829    0.470060932868553    0.923936257490434  0.0000
  O3     O3        0.766304424323620    0.244646425265022    0.025047977387870  0.0000
  O1     O1        0.736645270270928    0.769516755507608    0.110098192569352  0.0000
  O2     O2        0.253433180031807    0.263895024302139    0.982085398059710  0.0000
  O1     O1        0.229633679941614    0.767920761405023    0.964925064411581  0.0000
