data_c00280.vasp
_audit_creation_method             Generated by GULP
_audit_author_name                 Salvador R. G. Balestra
_symmetry_space_group_name_H-M     'P 1             '
_symmetry_Int_Tables_number        1

loop_
_symmetry_equiv_pos_site_id
_symmetry_equiv_pos_as_xyz
_cell_length_a                       17.5983
_cell_length_b                        7.7963
_cell_length_c                       10.3951
_cell_angle_alpha                   89.8719
_cell_angle_beta                    90.2976
_cell_angle_gamma                   88.6738

loop_
_atom_site_label
_atom_site_type_symbol
_atom_site_fract_x
_atom_site_fract_y
_atom_site_fract_z
_atom_site_charge
  Ge     Ge        0.052090000000021    0.000000000000000    0.372269999999958  0.0000
  Ge     Ge        0.452319063093247    0.942258083377968    0.392274822291118  0.0000
  Ge     Ge        0.948848509831316    0.939929974633045    0.626802652543267  0.0000
  Ge     Ge        0.547874533208750    0.991095373367018    0.655074974958055  0.0000
  Ge     Ge        0.559744794681563    0.988017904912615    0.151267071168774  0.0000
  Ge     Ge        0.950371671997637    0.931322198675934    0.114188073904060  0.0000
  Ge     Ge        0.444853647717499    0.936793203179329    0.911431631549334  0.0000
  Ge     Ge        0.148244858681729    0.314445269713977    0.295192136056299  0.0000
  Ge     Ge        0.354440315259439    0.633139870188363    0.278297730952604  0.0000
  Ge     Ge        0.825142209984751    0.224440981852629    0.730203377074422  0.0000
  Ge     Ge        0.674626491887235    0.714757485717779    0.735386960229949  0.0000
  Ge     Ge        0.853930824045992    0.627308071232702    0.738724615979029  0.0000
  Ge     Ge        0.644713757549499    0.305596910420466    0.729265871300720  0.0000
  Ge     Ge        0.175948180444885    0.719205934060824    0.290987204076427  0.0000
  Ge     Ge        0.327863526553875    0.228491927261092    0.283988518337656  0.0000
  Ge     Ge        0.849312650730069    0.617269338029928    0.054647914238704  0.0000
  Ge     Ge        0.324191865781463    0.233621449192582    0.973082138064369  0.0000
  Ge     Ge        0.167367715607862    0.711070870507601    0.978070874836035  0.0000
  Ge     Ge        0.141914824976420    0.307409745330342    0.982186396868397  0.0000
  Ge     Ge        0.825886796153999    0.219600728881809    0.041172195022366  0.0000
  Si     Si        0.051768068914301    0.996944768628179    0.869324428211978  0.0000
  Si     Si        0.647744004619278    0.298777230286610    0.031129427247198  0.0000
  Si     Si        0.344366512982689    0.628037459215454    0.971460204545137  0.0000
  Si     Si        0.672626030376466    0.695870088382058    0.040341011228754  0.0000
  O1     O1        0.084647492243201    0.204753087356011    0.387274022657812  0.0000
  O1     O1        0.426988321891448    0.738170648933901    0.350069624765101  0.0000
  O1     O1        0.872214728225085    0.076752379648995    0.637511523083607  0.0000
  O1     O1        0.625930698290800    0.854826302467696    0.638940511596437  0.0000
  O1     O1        0.923649724610653    0.734001251941905    0.659352267140540  0.0000
  O1     O1        0.578240016665406    0.198500377306849    0.641505316840611  0.0000
  O1     O1        0.127770987058288    0.858177992512171    0.389027481838440  0.0000
  O1     O1        0.376830375934877    0.082382435132599    0.376250373879696  0.0000
  O1     O1        0.978856730447199    0.952246945599097    0.469752260451056  0.0000
  O1     O1        0.475912421286962    0.945204449285877    0.553435101157068  0.0000
  O1     O1        0.022250222345553    0.980579563884442    0.213514382033080  0.0000
  O1     O1        0.532344544916298    0.996761546260421    0.309441576627148  0.0000
  O3     O3        0.025091994623141    0.999177263266466    0.721623362845120  0.0000
  O1     O1        0.519285134324946    0.955436133110439    0.811293595993759  0.0000
  O3     O3        0.591927080292022    0.192721928401749    0.119827877334685  0.0000
  O1     O1        0.914459901937460    0.730391058813337    0.139384416229076  0.0000
  O1     O1        0.376382367620820    0.094125155636210    0.881316381459558  0.0000
  O3     O3        0.124828903246583    0.870636527738897    0.886565066376027  0.0000
  O3     O3        0.403470401964255    0.737562101685248    0.892016698349987  0.0000
  O3     O3        0.073038495472483    0.190207101920558    0.906132328344132  0.0000
  O3     O3        0.627030132952052    0.824141622773839    0.133102465600199  0.0000
  O1     O1        0.872605139453970    0.067808428706446    0.130246299800167  0.0000
  O1     O1        0.478477363319143    0.948472259964717    0.067030990425142  0.0000
  O3     O3        0.982605839819165    0.932493498492458    0.955887529034523  0.0000
  O1     O1        0.163521124574381    0.514952147795187    0.351926828667510  0.0000
  O1     O1        0.343300374668217    0.432638068296341    0.341396037781850  0.0000
  O1     O1        0.840732705024131    0.428747058219686    0.673566521869049  0.0000
  O1     O1        0.656754728118238    0.510301516630197    0.679665709952844  0.0000
  O1     O1        0.231953613390486    0.195072859592314    0.289090727042513  0.0000
  O1     O1        0.271735623815887    0.754724108989731    0.291685104222242  0.0000
  O1     O1        0.729356370734623    0.191010168272406    0.723884304192532  0.0000
  O1     O1        0.770199204454616    0.747077570030990    0.729370604439770  0.0000
  O1     O1        0.115699255147632    0.333505524591355    0.139246124494499  0.0000
  O3     O3        0.373323657210485    0.599027858823981    0.117234428901232  0.0000
  O1     O1        0.858161640160373    0.205974274534182    0.885693648771745  0.0000
  O3     O3        0.645087250243612    0.729108447200145    0.894936491423699  0.0000
  O1     O1        0.877524575518745    0.598942373644758    0.897084938676650  0.0000
  O3     O3        0.613826309197503    0.304816908981699    0.888259614650401  0.0000
  O1     O1        0.140249970961937    0.731192499624881    0.135858995229704  0.0000
  O1     O1        0.357748745273309    0.208466076985615    0.127594060083629  0.0000
  O2     O2        0.659419049755328    0.495177142287904    0.078433886245305  0.0000
  O1     O1        0.843817768929195    0.413926029725189    0.112512804929077  0.0000
  O3     O3        0.333434509133029    0.440904674135502    0.912188145197345  0.0000
  O1     O1        0.146059294762485    0.511617006890317    0.919604399266022  0.0000
  O3     O3        0.728503791870921    0.197790248762810    0.032512887184532  0.0000
  O3     O3        0.761950590156975    0.726952241317770    0.053960569919086  0.0000
  O1     O1        0.228116747083093    0.200246837848520    0.971768612594910  0.0000
  O3     O3        0.264751951686809    0.734992766976448    0.975352273387615  0.0000
