data_c00273.vasp
_audit_creation_method             Generated by GULP
_audit_author_name                 Salvador R. G. Balestra
_symmetry_space_group_name_H-M     'P 1             '
_symmetry_Int_Tables_number        1

loop_
_symmetry_equiv_pos_site_id
_symmetry_equiv_pos_as_xyz
_cell_length_a                       17.5889
_cell_length_b                        7.8879
_cell_length_c                       10.2671
_cell_angle_alpha                   90.0288
_cell_angle_beta                    88.7888
_cell_angle_gamma                   91.9492

loop_
_atom_site_label
_atom_site_type_symbol
_atom_site_fract_x
_atom_site_fract_y
_atom_site_fract_z
_atom_site_charge
  Ge     Ge        0.052090000000021    0.000000000000000    0.372269999999958  0.0000
  Ge     Ge        0.451915279922130    0.032580281100063    0.373301554508608  0.0000
  Ge     Ge        0.977251630551365    0.067962664565756    0.649143989392248  0.0000
  Ge     Ge        0.558931986113605    0.048362433132283    0.624503675637313  0.0000
  Ge     Ge        0.560659942798447    0.025445986269448    0.121041538254661  0.0000
  Ge     Ge        0.928226129022815    0.036487953650505    0.153275468902072  0.0000
  Ge     Ge        0.449463843651956    0.028498846042679    0.880712947280313  0.0000
  Ge     Ge        0.174779977443414    0.297355570021467    0.271672821704616  0.0000
  Ge     Ge        0.328077683387237    0.742122130809647    0.264422304980801  0.0000
  Ge     Ge        0.848014386195477    0.336279047899965    0.715074009378654  0.0000
  Ge     Ge        0.678608697936473    0.772617673449894    0.690479335966287  0.0000
  Ge     Ge        0.861127230600347    0.763530556518111    0.721666528830403  0.0000
  Ge     Ge        0.670887448144297    0.359930456547186    0.685205345995658  0.0000
  Ge     Ge        0.144447841825189    0.679493846785858    0.284447180821938  0.0000
  Ge     Ge        0.351467661265273    0.331739867215795    0.263117619827964  0.0000
  Ge     Ge        0.654451823444217    0.363642962607412    0.015657744474564  0.0000
  Ge     Ge        0.347005681158550    0.336004895861062    0.952231014143569  0.0000
  Ge     Ge        0.144912098050416    0.689748366587851    0.960726262727263  0.0000
  Ge     Ge        0.327585399223389    0.741056254938348    0.951243358990565  0.0000
  Ge     Ge        0.835198148514829    0.347609467526684    0.034234605643535  0.0000
  Si     Si        0.056069540099253    0.014312973440191    0.921822704169556  0.0000
  Si     Si        0.842566491765009    0.740083995101202    0.017752882888804  0.0000
  Si     Si        0.174609247522638    0.317110559222386    0.962630215371281  0.0000
  Si     Si        0.661929498140438    0.747288312643595    0.994180715953468  0.0000
  O1     O1        0.122692379071297    0.114205795599130    0.287221008725287  0.0000
  O1     O1        0.379848864524292    0.883953549470126    0.355520662978055  0.0000
  O1     O1        0.915520949019491    0.229320954565581    0.631063111350326  0.0000
  O1     O1        0.627837384496581    0.902124330755874    0.595285185942183  0.0000
  O1     O1        0.929087606586186    0.875341409542063    0.634079965037816  0.0000
  O1     O1        0.602907782855818    0.245563490705096    0.604511303289960  0.0000
  O1     O1        0.080545074555870    0.795359985168111    0.372455587909438  0.0000
  O1     O1        0.420608841765370    0.232422675638853    0.345991716605261  0.0000
  O1     O1        0.045932409589985    0.076498640259684    0.529293550860209  0.0000
  O1     O1        0.480648077043522    0.021579385680911    0.531959801546233  0.0000
  O1     O1        0.963714066000982    0.021641555574526    0.306433874776317  0.0000
  O1     O1        0.532977672910023    0.998478293910849    0.280252488757465  0.0000
  O3     O3        0.014522126660173    0.096499569982664    0.802589779537784  0.0000
  O1     O1        0.528511853808533    0.023868722634539    0.783437736558409  0.0000
  O1     O1        0.586853353365165    0.233291729070894    0.087746773751487  0.0000
  O3     O3        0.859602590996975    0.874448451507816    0.130176980014925  0.0000
  O1     O1        0.411085099850570    0.224562601259382    0.862028445807089  0.0000
  O3     O3        0.085629323320110    0.829402232713353    0.884009528142091  0.0000
  O1     O1        0.378301737821495    0.878934210378266    0.852319274070818  0.0000
  O2     O2        0.128789160360780    0.138546211217034    0.955873510668806  0.0000
  O3     O3        0.638459181665124    0.899034863842728    0.087600799456538  0.0000
  O1     O1        0.889003466854679    0.228330991729786    0.135010427404135  0.0000
  O1     O1        0.481854792286805    0.974661605600341    0.033188397652759  0.0000
  O3     O3        0.005562233512765    0.002881041797688    0.052139088141106  0.0000
  O1     O1        0.125378131230653    0.469259042456254    0.323775675721588  0.0000
  O1     O1        0.368986016690744    0.547042436358204    0.263480518149736  0.0000
  O1     O1        0.866104696344217    0.551180951610905    0.700884071457882  0.0000
  O1     O1        0.665735993898567    0.567509954200651    0.640116141681487  0.0000
  O1     O1        0.263531787198046    0.282063154942853    0.335121995065650  0.0000
  O1     O1        0.237200764731771    0.719950054356086    0.327981497493088  0.0000
  O1     O1        0.760935160895364    0.292665425464464    0.649481097800402  0.0000
  O1     O1        0.773077444704229    0.833118581818330    0.682520347190684  0.0000
  O3     O3        0.199308218477011    0.362336582839581    0.111513750300451  0.0000
  O1     O1        0.322636312720218    0.816819465112006    0.108330862330362  0.0000
  O1     O1        0.846887828604172    0.278051570983572    0.877315618216896  0.0000
  O3     O3        0.640969440007720    0.792289357667937    0.848087839613269  0.0000
  O3     O3        0.880184987168660    0.813205704425438    0.884514660702906  0.0000
  O1     O1        0.661197492362308    0.331833064995501    0.851356781257857  0.0000
  O1     O1        0.132304512928791    0.729327098471509    0.123020351752573  0.0000
  O1     O1        0.355643543275900    0.254168338214692    0.106318506535355  0.0000
  O3     O3        0.623867108281755    0.569840028490936    0.041578390746191  0.0000
  O3     O3        0.871605169008186    0.554986866501767    0.050419607434153  0.0000
  O1     O1        0.370034141158723    0.547659975430110    0.947764967483287  0.0000
  O3     O3        0.124931782168034    0.475797138527911    0.921273120455194  0.0000
  O1     O1        0.741563317264179    0.329006916582231    0.082577245739828  0.0000
  O2     O2        0.752588804112295    0.708064700952542    0.988184002742170  0.0000
  O3     O3        0.255477422654633    0.304437384474284    0.889209638217488  0.0000
  O1     O1        0.235553746288788    0.720101477913491    0.900574708417750  0.0000
