data_c00210.vasp
_audit_creation_method             Generated by GULP
_audit_author_name                 Salvador R. G. Balestra
_symmetry_space_group_name_H-M     'P 1             '
_symmetry_Int_Tables_number        1

loop_
_symmetry_equiv_pos_site_id
_symmetry_equiv_pos_as_xyz
_cell_length_a                       17.4908
_cell_length_b                        7.9940
_cell_length_c                       10.2859
_cell_angle_alpha                   86.6248
_cell_angle_beta                    89.8602
_cell_angle_gamma                   90.1984

loop_
_atom_site_label
_atom_site_type_symbol
_atom_site_fract_x
_atom_site_fract_y
_atom_site_fract_z
_atom_site_charge
  Ge     Ge        0.052090000000021    0.000000000000000    0.372269999999958  0.0000
  Ge     Ge        0.449550909059780    0.006207588019819    0.371979734244980  0.0000
  Ge     Ge        0.943643829868510    0.036593434368220    0.618314091428968  0.0000
  Ge     Ge        0.558874023256932    0.032151323890485    0.617554706257624  0.0000
  Ge     Ge        0.547177345143436    0.993057358844559    0.108755787286330  0.0000
  Ge     Ge        0.954276364486541    0.002365211547781    0.109182848812350  0.0000
  Ge     Ge        0.439075101788694    0.034850223322510    0.854785687187234  0.0000
  Ge     Ge        0.063332434897090    0.030525472015192    0.854805493693723  0.0000
  Ge     Ge        0.159856183952117    0.303427821776474    0.281473602752752  0.0000
  Ge     Ge        0.341151249326003    0.717990776420347    0.287638376297575  0.0000
  Ge     Ge        0.847927888958480    0.351601368179042    0.717513489772404  0.0000
  Ge     Ge        0.658089351616663    0.343511658831472    0.716653629536696  0.0000
  Ge     Ge        0.158363343234881    0.710546240318931    0.287823015229062  0.0000
  Ge     Ge        0.344303594404400    0.311225261563421    0.281840706824388  0.0000
  Ge     Ge        0.661039600948677    0.295028995550606    0.031881650009065  0.0000
  Ge     Ge        0.839833149154172    0.710040412896941    0.047411219668140  0.0000
  Ge     Ge        0.347475563191871    0.348480055231713    0.966591622499905  0.0000
  Ge     Ge        0.157153418747368    0.342416943600562    0.966318013031424  0.0000
  Ge     Ge        0.657198305770860    0.696915126799638    0.047212269413427  0.0000
  Ge     Ge        0.845073105985479    0.308886664551488    0.032992862368304  0.0000
  Si     Si        0.658632296154063    0.724938687958563    0.743659694903076  0.0000
  Si     Si        0.841734736846799    0.732847080095349    0.744040798715739  0.0000
  Si     Si        0.158992478261456    0.725251700410544    0.985552423076609  0.0000
  Si     Si        0.341975810026611    0.731081874805166    0.985348461531417  0.0000
  O1     O1        0.107872325014339    0.175126613130488    0.387868320366262  0.0000
  O1     O1        0.394284100468329    0.828629767744798    0.392881405327991  0.0000
  O1     O1        0.905406575592683    0.232750887194714    0.624350369357269  0.0000
  O3     O3        0.627754835371199    0.884547554939354    0.660813169756454  0.0000
  O3     O3        0.871518672848498    0.895091990410729    0.662049253329881  0.0000
  O1     O1        0.601861190295517    0.224249017086814    0.621827414660233  0.0000
  O1     O1        0.103707792358372    0.818140527492195    0.392993913824289  0.0000
  O1     O1        0.397318282232675    0.185580015170526    0.387740849962963  0.0000
  O1     O1        0.969910713103559    0.002906245343934    0.460507899310530  0.0000
  O1     O1        0.531649261066935    0.000855441731517    0.459937015318667  0.0000
  O1     O1        0.030554760028229    0.005098288001017    0.208055257831885  0.0000
  O1     O1        0.471356349957867    0.010276515917639    0.207635695719833  0.0000
  O1     O1        0.029020712919090    0.011709155884498    0.699680768707365  0.0000
  O1     O1        0.473013393255298    0.015780634508422    0.699233378901477  0.0000
  O1     O1        0.609127512291655    0.158177059769628    0.128330268786504  0.0000
  O1     O1        0.897667225671670    0.827402216940498    0.139210170453986  0.0000
  O1     O1        0.399974821174893    0.229759156615972    0.866400271052635  0.0000
  O3     O3        0.133138809738057    0.880418590921692    0.892317272027773  0.0000
  O3     O3        0.367133282927404    0.888157173422134    0.892656133285844  0.0000
  O1     O1        0.105843524224583    0.222757674125132    0.865142557519005  0.0000
  O1     O1        0.596105642519307    0.808038412384509    0.138100728526542  0.0000
  O1     O1        0.900069696060288    0.178883586842232    0.129106616682872  0.0000
  O1     O1        0.518135634321789    0.004560365723142    0.948713947927883  0.0000
  O1     O1        0.983785532629100    0.006279363681729    0.949273723240860  0.0000
  O1     O1        0.157661763539766    0.502297749442560    0.335560789750997  0.0000
  O1     O1        0.343874562142553    0.509659067937695    0.336083634010982  0.0000
  O3     O3        0.861575339527778    0.564131873032362    0.673765000199609  0.0000
  O3     O3        0.641866435612443    0.554749938694616    0.673327797648285  0.0000
  O1     O1        0.252568001806631    0.235314297739703    0.277044123584633  0.0000
  O1     O1        0.249270391584857    0.790224812867547    0.293751406424268  0.0000
  O1     O1        0.753412784998954    0.299124124854221    0.698576929828910  0.0000
  O2     O2        0.750100821167764    0.734096176519118    0.767311889239111  0.0000
  O1     O1        0.126371538782317    0.302696119940387    0.123733539136845  0.0000
  O3     O3        0.377753178124299    0.742629899181496    0.128498423145574  0.0000
  O1     O1        0.878441488945021    0.318710250094704    0.874786823457397  0.0000
  O3     O3        0.623153608822343    0.716460601883266    0.887394534272192  0.0000
  O3     O3        0.875765381055490    0.728777296949436    0.888537774976250  0.0000
  O1     O1        0.627780220127381    0.303902223238897    0.873878231793873  0.0000
  O3     O3        0.122471182247053    0.733908118780834    0.128545727686214  0.0000
  O1     O1        0.378196246052565    0.312932074579147    0.124028961862424  0.0000
  O1     O1        0.657703744541587    0.489201156774017    0.095677581108343  0.0000
  O1     O1        0.843099708985547    0.502015898088608    0.097000315689379  0.0000
  O3     O3        0.365314663703697    0.559263455960730    0.922931311640285  0.0000
  O3     O3        0.137539860218301    0.552121074303121    0.923261123955175  0.0000
  O1     O1        0.754003086462040    0.230901988052930    0.023681005075528  0.0000
  O1     O1        0.747579517435396    0.778781085748059    0.059053515338517  0.0000
  O1     O1        0.252568506521281    0.299774075557687    0.952153356953867  0.0000
  O2     O2        0.250518469051721    0.718889586807958    0.012181602804220  0.0000
