data_c00236.vasp
_audit_creation_method             Generated by GULP
_audit_author_name                 Salvador R. G. Balestra
_symmetry_space_group_name_H-M     'P 1             '
_symmetry_Int_Tables_number        1

loop_
_symmetry_equiv_pos_site_id
_symmetry_equiv_pos_as_xyz
_cell_length_a                       17.7394
_cell_length_b                        7.7934
_cell_length_c                       10.4786
_cell_angle_alpha                   89.6388
_cell_angle_beta                    89.9019
_cell_angle_gamma                   90.2689

loop_
_atom_site_label
_atom_site_type_symbol
_atom_site_fract_x
_atom_site_fract_y
_atom_site_fract_z
_atom_site_charge
  Ge     Ge        0.052090000000021    0.000000000000000    0.372269999999958  0.0000
  Ge     Ge        0.452735265132711    0.972821849112363    0.373147477636477  0.0000
  Ge     Ge        0.947283961847055    0.017724041172385    0.622583590605263  0.0000
  Ge     Ge        0.561537721294941    0.994971790888770    0.619702645913147  0.0000
  Ge     Ge        0.548602031711213    0.986313071858489    0.109976157681412  0.0000
  Ge     Ge        0.953364079816268    0.000932801527026    0.111541754750274  0.0000
  Ge     Ge        0.445476097470530    0.974454307534745    0.858801447740656  0.0000
  Ge     Ge        0.060356078891684    0.002782984987728    0.865382861791678  0.0000
  Ge     Ge        0.152028496952666    0.314481372474490    0.292546106529719  0.0000
  Ge     Ge        0.354109668785104    0.658758896114011    0.287776854845336  0.0000
  Ge     Ge        0.850274065433483    0.334003281138868    0.721306851428835  0.0000
  Ge     Ge        0.174770948422608    0.727503016980157    0.288047821773884  0.0000
  Ge     Ge        0.330147769884201    0.245357090221135    0.291569938863639  0.0000
  Ge     Ge        0.673706931665272    0.258242573941303    0.028969143692166  0.0000
  Ge     Ge        0.828314165005076    0.725014525449991    0.043187585622595  0.0000
  Ge     Ge        0.327429648069685    0.244575087120311    0.981316536371280  0.0000
  Ge     Ge        0.175004597715551    0.716687244900252    0.980117446047146  0.0000
  Ge     Ge        0.356014824320098    0.653439717489840    0.977638627514893  0.0000
  Ge     Ge        0.649311402448891    0.674831958195967    0.034794577760584  0.0000
  Ge     Ge        0.853434274983026    0.316452070893131    0.031933035859080  0.0000
  Si     Si        0.656595573755771    0.686516035669210    0.735761393798910  0.0000
  Si     Si        0.833524106425074    0.729161061364186    0.739981056699788  0.0000
  Si     Si        0.670542282138792    0.287176023699413    0.727598607598317  0.0000
  Si     Si        0.151052354644511    0.312690830835470    0.989578216052460  0.0000
  O1     O1        0.087286674847215    0.205284530957726    0.383682962123502  0.0000
  O1     O1        0.416277342333543    0.768932203795143    0.382848871150934  0.0000
  O1     O1        0.909052631454883    0.219508615264669    0.625420717651161  0.0000
  O3     O3        0.608893873898575    0.802967455828014    0.641031217760315  0.0000
  O3     O3        0.874149437169150    0.881373629251762    0.664923519631247  0.0000
  O3     O3        0.621841340246030    0.167732291729860    0.635346321309595  0.0000
  O1     O1        0.124868582036703    0.856212242517343    0.388904057751213  0.0000
  O1     O1        0.380664024030140    0.117758473195055    0.393288044382225  0.0000
  O1     O1        0.976615478392003    0.970219018732764    0.470544354409106  0.0000
  O1     O1        0.530886816197508    0.999492506742463    0.464486355515925  0.0000
  O1     O1        0.023396444896053    0.967612561655050    0.217135006898930  0.0000
  O1     O1        0.479321509730390    0.015178732761433    0.217205787067473  0.0000
  O1     O1        0.028157155609468    0.004341309663724    0.710972011536340  0.0000
  O1     O1        0.479774426281750    0.001186378964524    0.706497064323068  0.0000
  O1     O1        0.624527149761501    0.123702197220626    0.125869736998775  0.0000
  O1     O1        0.878920748735930    0.860480586801970    0.135164999281521  0.0000
  O1     O1        0.366113725364327    0.097811794740140    0.881602455943847  0.0000
  O1     O1        0.129447556714267    0.850227194578995    0.876397979330850  0.0000
  O1     O1        0.419894453046780    0.764280010639936    0.886291029947416  0.0000
  O3     O3        0.092098594101584    0.206375072735247    0.906027324102810  0.0000
  O1     O1        0.582173790113876    0.779182374636021    0.120290801107698  0.0000
  O1     O1        0.917974663267106    0.205471120277611    0.120081225924237  0.0000
  O1     O1        0.514570108875480    0.037885948970914    0.961010235110364  0.0000
  O1     O1        0.985388320810804    0.953956525112476    0.960718331631706  0.0000
  O1     O1        0.163331783814342    0.519175891580626    0.343126292723002  0.0000
  O1     O1        0.341105164617951    0.454859366357887    0.341879600687693  0.0000
  O3     O3        0.853122196893865    0.547931920266332    0.675616341625022  0.0000
  O2     O2        0.654956991804092    0.487607385651230    0.693342471893769  0.0000
  O1     O1        0.235234318773267    0.201812493813986    0.298329230012055  0.0000
  O1     O1        0.269743982523729    0.769437233231584    0.287209073412220  0.0000
  O3     O3        0.759010266449822    0.254720027740495    0.711717787951038  0.0000
  O2     O2        0.742879136018292    0.753731358219873    0.740127038021215  0.0000
  O3     O3        0.121378308522307    0.320769982866702    0.134621917090219  0.0000
  O1     O1        0.387206559090155    0.654294395291316    0.133226354080643  0.0000
  O1     O1        0.882306250816237    0.312496789438374    0.874557958931696  0.0000
  O3     O3        0.621623586148614    0.702722534629427    0.875919306773203  0.0000
  O3     O3        0.859769093363597    0.726711401905724    0.885680867395885  0.0000
  O3     O3        0.644438386296775    0.245938462770114    0.870774500414742  0.0000
  O1     O1        0.142990150614874    0.745638350554023    0.132884755100297  0.0000
  O1     O1        0.359708432529814    0.227367104170805    0.135289297852280  0.0000
  O1     O1        0.657443419030067    0.466068835478190    0.078101398516525  0.0000
  O1     O1        0.842020911254708    0.516230920319590    0.092949933137009  0.0000
  O1     O1        0.348006741011156    0.447342662942402    0.924629331584360  0.0000
  O3     O3        0.161025388360364    0.503931464121141    0.934949989710931  0.0000
  O1     O1        0.767331842586235    0.212588380718143    0.035287647808474  0.0000
  O1     O1        0.735046337552496    0.775139701982186    0.052697102048166  0.0000
  O3     O3        0.230722338100722    0.214516233847423    0.987850985592134  0.0000
  O1     O1        0.269936174359010    0.754478606570708    0.974608529663676  0.0000
