data_c00298.vasp
_audit_creation_method             Generated by GULP
_audit_author_name                 Salvador R. G. Balestra
_symmetry_space_group_name_H-M     'P 1             '
_symmetry_Int_Tables_number        1

loop_
_symmetry_equiv_pos_site_id
_symmetry_equiv_pos_as_xyz
_cell_length_a                       17.5856
_cell_length_b                        7.8149
_cell_length_c                       10.3088
_cell_angle_alpha                   89.8508
_cell_angle_beta                    90.9565
_cell_angle_gamma                   88.4776

loop_
_atom_site_label
_atom_site_type_symbol
_atom_site_fract_x
_atom_site_fract_y
_atom_site_fract_z
_atom_site_charge
  Ge     Ge        0.052090000000021    0.000000000000000    0.372269999999958  0.0000
  Ge     Ge        0.443735945044818    0.954437439735541    0.363353568292208  0.0000
  Ge     Ge        0.950525319455989    0.966344317176345    0.628720423360997  0.0000
  Ge     Ge        0.545282885694176    0.021880900151606    0.617715802534758  0.0000
  Ge     Ge        0.552533679608013    0.020246569452906    0.124057144447346  0.0000
  Ge     Ge        0.940156211283233    0.955099418096558    0.127080804327794  0.0000
  Ge     Ge        0.444857361526748    0.954651088956902    0.873033169746939  0.0000
  Ge     Ge        0.147066861825904    0.314806981733329    0.255357637409986  0.0000
  Ge     Ge        0.353395134865527    0.634903179373258    0.249363721335505  0.0000
  Ge     Ge        0.824840285950208    0.246500643326457    0.699309347776694  0.0000
  Ge     Ge        0.671344687158053    0.738420519860431    0.691684500621780  0.0000
  Ge     Ge        0.850785324469031    0.652137655933487    0.697589185650886  0.0000
  Ge     Ge        0.644628967112172    0.334069134350784    0.691192196065928  0.0000
  Ge     Ge        0.171342689992042    0.713460911475308    0.263588710344896  0.0000
  Ge     Ge        0.641941836609565    0.335955477288039    0.007927858802255  0.0000
  Ge     Ge        0.319759055742548    0.244976034038735    0.939756448363767  0.0000
  Ge     Ge        0.160713212141384    0.717918095895764    0.950454290001045  0.0000
  Ge     Ge        0.343663302335967    0.645521876877945    0.935031285305115  0.0000
  Ge     Ge        0.672242455241167    0.736937171811956    0.006986179578018  0.0000
  Ge     Ge        0.823431859530815    0.252388152308121    0.013608853552454  0.0000
  Si     Si        0.045747956182868    0.017255730940752    0.887803049097349  0.0000
  Si     Si        0.324078178434818    0.239609547836420    0.249298723418923  0.0000
  Si     Si        0.849189259768979    0.649055069014720    0.005743994485108  0.0000
  Si     Si        0.143529350229237    0.324250206740790    0.945176427240491  0.0000
  O1     O1        0.078494682458654    0.202153770122121    0.327943294769526  0.0000
  O1     O1        0.419068874131147    0.746129055147692    0.337957043266990  0.0000
  O1     O1        0.874814548578869    0.107270828405401    0.603530928102045  0.0000
  O1     O1        0.619177568017079    0.876604330571487    0.595065618327058  0.0000
  O1     O1        0.918663643888713    0.760935728660187    0.616693963026830  0.0000
  O1     O1        0.579259485756246    0.224233994859399    0.600619878452395  0.0000
  O1     O1        0.128427639590575    0.862259620970359    0.361085645353177  0.0000
  O3     O3        0.367799324856629    0.091775083083957    0.329147046274255  0.0000
  O1     O1        0.025062516376294    0.003563699613150    0.532128195310061  0.0000
  O1     O1        0.467300081612323    0.980138981096026    0.524826778349953  0.0000
  O1     O1        0.973431485488309    0.941248374757433    0.284145966014183  0.0000
  O1     O1        0.524428717486486    0.006243354525429    0.282455103756780  0.0000
  O3     O3        0.975901038230142    0.000599400148508    0.790626675423984  0.0000
  O1     O1        0.518873403813140    0.001553699198867    0.778413761791147  0.0000
  O1     O1        0.574170791530754    0.228553181376423    0.090126073048637  0.0000
  O3     O3        0.910012165721998    0.752535924594778    0.088593984749104  0.0000
  O1     O1        0.369286072719022    0.099249468050165    0.852558026462173  0.0000
  O3     O3        0.107906763587557    0.866506270372839    0.860425291744484  0.0000
  O1     O1        0.405940728679741    0.758334663047104    0.844743086258558  0.0000
  O2     O2        0.082192532722863    0.205731481486500    0.872381121979339  0.0000
  O1     O1        0.632466984166332    0.893127942723649    0.100484856502493  0.0000
  O1     O1        0.869974948106792    0.110665864998851    0.115966892877397  0.0000
  O1     O1        0.476813353207881    0.954899005419863    0.032006434302331  0.0000
  O3     O3        0.017593092677359    0.006037076994222    0.035081669194971  0.0000
  O1     O1        0.154498915938325    0.512356132534689    0.323807782007302  0.0000
  O3     O3        0.342792446074044    0.426965866659649    0.305516483136786  0.0000
  O1     O1        0.838525150426261    0.450958623562861    0.640186669686693  0.0000
  O1     O1        0.658471988235625    0.534105582117870    0.632225634940769  0.0000
  O3     O3        0.234529666653299    0.206661023050444    0.259473629923273  0.0000
  O1     O1        0.267202385452036    0.741744883712146    0.259811517420014  0.0000
  O1     O1        0.728672494066256    0.214393864520201    0.694332725857981  0.0000
  O1     O1        0.767188013150292    0.772798941923068    0.688600502288773  0.0000
  O3     O3        0.123415641403956    0.355565794973695    0.094650354564070  0.0000
  O1     O1        0.379965662483323    0.629662554988601    0.091263803108291  0.0000
  O1     O1        0.854718158613125    0.225372515147487    0.858835684637784  0.0000
  O1     O1        0.639848018183001    0.754068303834593    0.849056481738267  0.0000
  O3     O3        0.877603794084389    0.627684403178040    0.859524283095743  0.0000
  O1     O1        0.614149697303067    0.354833083065573    0.848086365856787  0.0000
  O1     O1        0.133992017058170    0.737050537810343    0.108832240472391  0.0000
  O3     O3        0.350583994138939    0.233986441195959    0.100542635025897  0.0000
  O1     O1        0.650770764429681    0.539195428479171    0.067897518209221  0.0000
  O3     O3        0.837300051783899    0.462122849249055    0.065227426278873  0.0000
  O1     O1        0.335493600571209    0.443823832840924    0.875659834926610  0.0000
  O3     O3        0.147267179309608    0.513256647985836    0.885363675309848  0.0000
  O1     O1        0.727289034002024    0.223176464733767    0.017839807129415  0.0000
  O3     O3        0.769922711076013    0.757994713517488    0.004002333040101  0.0000
  O3     O3        0.222850776902703    0.217771573830836    0.936344345362630  0.0000
  O1     O1        0.256357033163319    0.751305526099862    0.940812791350185  0.0000
