data_c00295.vasp
_audit_creation_method             Generated by GULP
_audit_author_name                 Salvador R. G. Balestra
_symmetry_space_group_name_H-M     'P 1             '
_symmetry_Int_Tables_number        1

loop_
_symmetry_equiv_pos_site_id
_symmetry_equiv_pos_as_xyz
_cell_length_a                       17.7056
_cell_length_b                        7.8095
_cell_length_c                       10.2360
_cell_angle_alpha                   88.3215
_cell_angle_beta                    91.1798
_cell_angle_gamma                   90.6505

loop_
_atom_site_label
_atom_site_type_symbol
_atom_site_fract_x
_atom_site_fract_y
_atom_site_fract_z
_atom_site_charge
  Ge     Ge        0.052090000000021    0.000000000000000    0.372269999999958  0.0000
  Ge     Ge        0.442375553965943    0.054723369447234    0.392448638229212  0.0000
  Ge     Ge        0.944392244486321    0.067765649726270    0.617996745211118  0.0000
  Ge     Ge        0.541180944929071    0.031214825722759    0.654359740443464  0.0000
  Ge     Ge        0.554179510456873    0.005023440690789    0.161889346407888  0.0000
  Ge     Ge        0.951486651761432    0.061206180920376    0.109438772700361  0.0000
  Ge     Ge        0.440139814496110    0.076240697212954    0.915471075128235  0.0000
  Ge     Ge        0.173260458535967    0.282447386921699    0.290445569503579  0.0000
  Ge     Ge        0.327877227315173    0.757206334329289    0.290019479661512  0.0000
  Ge     Ge        0.849143935689102    0.380977513121902    0.724963750075818  0.0000
  Ge     Ge        0.640899018039566    0.709324815619860    0.722218073757426  0.0000
  Ge     Ge        0.820780378981213    0.784244375922185    0.723109910665442  0.0000
  Ge     Ge        0.669371698086235    0.303990467385907    0.724059366943356  0.0000
  Ge     Ge        0.147383203680036    0.688528685184671    0.296181181623111  0.0000
  Ge     Ge        0.674022192979375    0.291444613500032    0.042164918806970  0.0000
  Ge     Ge        0.824792068668196    0.781155466484475    0.040953130041242  0.0000
  Ge     Ge        0.323252399961329    0.775450512200785    0.978009300959930  0.0000
  Ge     Ge        0.163128017861788    0.314693759612615    0.968037050462236  0.0000
  Ge     Ge        0.646453955252153    0.698308836114649    0.041039923635445  0.0000
  Ge     Ge        0.851565628701368    0.378263271575994    0.044175945410758  0.0000
  Si     Si        0.051320636215280    0.022067220415863    0.862365142464621  0.0000
  Si     Si        0.344682574643579    0.362257712925210    0.274116017695004  0.0000
  Si     Si        0.336064149151962    0.386292694961099    0.961332153401553  0.0000
  Si     Si        0.144031462101841    0.713565471271592    0.987229640947654  0.0000
  O1     O1        0.127587084171804    0.138866324442733    0.389293405189215  0.0000
  O1     O1        0.376308745917048    0.894143852891836    0.389275493130166  0.0000
  O1     O1        0.916699197060177    0.273046052934673    0.642852136149149  0.0000
  O1     O1        0.573317513598078    0.825870848508060    0.638034445658792  0.0000
  O1     O1        0.868014791705697    0.934212618957628    0.630321039631996  0.0000
  O1     O1        0.617254877319030    0.167313061153887    0.630934659433101  0.0000
  O1     O1        0.085286234699754    0.794828880016926    0.390264092777615  0.0000
  O3     O3        0.414916523492052    0.250305257951854    0.321326255007807  0.0000
  O1     O1        0.976214944878247    0.049531442242451    0.460712258641319  0.0000
  O1     O1        0.465952723642683    0.080747508059279    0.554769440790601  0.0000
  O1     O1        0.026447968590889    0.020879937478690    0.208232025367037  0.0000
  O1     O1        0.525457416606586    0.002662564196121    0.321190632659342  0.0000
  O3     O3        0.022643248964117    0.008553283006835    0.713506421548762  0.0000
  O1     O1        0.513295034621967    0.054174534441038    0.813937475118492  0.0000
  O1     O1        0.628728653690886    0.143694735395034    0.139526664090979  0.0000
  O1     O1        0.877886347220439    0.918429554908442    0.132179690447205  0.0000
  O3     O3        0.402155469209948    0.281533268318703    0.900728781415197  0.0000
  O2     O2        0.087824283943292    0.840352216266034    0.906872966946187  0.0000
  O1     O1        0.369474659155685    0.927621537615454    0.886335153913674  0.0000
  O3     O3        0.111302256879510    0.177696215238997    0.872524297056402  0.0000
  O1     O1        0.580261232962516    0.800312244104869    0.128017955445748  0.0000
  O1     O1        0.918276428287750    0.264517362547534    0.131245343505039  0.0000
  O1     O1        0.475024144651460    0.062550782810626    0.072402363652060  0.0000
  O3     O3        0.978297241756874    0.057398640085444    0.946533942062271  0.0000
  O1     O1        0.155020069945650    0.481746812713026    0.349085906991243  0.0000
  O3     O3        0.343659446594650    0.544837515052840    0.341415208220428  0.0000
  O1     O1        0.835455364101872    0.584195410082527    0.661531979760663  0.0000
  O1     O1        0.653635487115799    0.509995957255253    0.663572338804520  0.0000
  O3     O3        0.269855805371307    0.249827743502335    0.303919894434879  0.0000
  O1     O1        0.233156580558086    0.793826082758984    0.299650565436790  0.0000
  O1     O1        0.764769386840114    0.267800234632951    0.719370930790245  0.0000
  O1     O1        0.725520406317506    0.821712249303502    0.719952541720537  0.0000
  O1     O1        0.144233608071996    0.270957113997770    0.128768805399113  0.0000
  O1     O1        0.359071367563548    0.796996103628416    0.134239719405112  0.0000
  O1     O1        0.877838885431988    0.404697631533774    0.883894224131566  0.0000
  O1     O1        0.614373218164204    0.686381266946850    0.882486025787921  0.0000
  O1     O1        0.853642426828338    0.795302387263783    0.881638275381697  0.0000
  O1     O1        0.640542521348956    0.283315401574619    0.883905519979350  0.0000
  O3     O3        0.115672729713203    0.687409185533383    0.133942481996158  0.0000
  O2     O2        0.342143783572164    0.411722506277620    0.118962665589865  0.0000
  O1     O1        0.661138917264399    0.494308452473362    0.100524024589753  0.0000
  O1     O1        0.838401688012008    0.575847099487552    0.104928231977607  0.0000
  O3     O3        0.337654506935554    0.579916547516412    0.905854262528933  0.0000
  O3     O3        0.144404119515939    0.527533990217502    0.924539853061975  0.0000
  O1     O1        0.769357825166402    0.256933928176970    0.043502536557320  0.0000
  O1     O1        0.729525392824071    0.816943690441642    0.044650484848718  0.0000
  O3     O3        0.257585709876060    0.286289165077850    0.935428991651477  0.0000
  O3     O3        0.226718166433954    0.801389972338599    0.987417448178804  0.0000
