data_c00221.vasp
_audit_creation_method             Generated by GULP
_audit_author_name                 Salvador R. G. Balestra
_symmetry_space_group_name_H-M     'P 1             '
_symmetry_Int_Tables_number        1

loop_
_symmetry_equiv_pos_site_id
_symmetry_equiv_pos_as_xyz
_cell_length_a                       17.6589
_cell_length_b                        7.8304
_cell_length_c                       10.1770
_cell_angle_alpha                   87.8374
_cell_angle_beta                    90.0152
_cell_angle_gamma                   91.0724

loop_
_atom_site_label
_atom_site_type_symbol
_atom_site_fract_x
_atom_site_fract_y
_atom_site_fract_z
_atom_site_charge
  Ge     Ge        0.052090000000021    0.000000000000000    0.372269999999958  0.0000
  Ge     Ge        0.445811116560258    0.051412869824529    0.407155547160670  0.0000
  Ge     Ge        0.945786292980236    0.073194606389519    0.618182600608419  0.0000
  Ge     Ge        0.556646543481012    0.034215202798052    0.657339745876353  0.0000
  Ge     Ge        0.554926330709274    0.016435590687120    0.161073901394351  0.0000
  Ge     Ge        0.951628442127943    0.071731067881927    0.114118379578555  0.0000
  Ge     Ge        0.450582499592878    0.088096792172897    0.909576295895242  0.0000
  Ge     Ge        0.057591066914590    0.026796646037528    0.862691636600113  0.0000
  Ge     Ge        0.174193902681770    0.286397557049515    0.292702786315040  0.0000
  Ge     Ge        0.329822255903221    0.759454258905133    0.301057311334506  0.0000
  Ge     Ge        0.857684634344896    0.394764740191793    0.728987757901743  0.0000
  Ge     Ge        0.674217799616353    0.326795332882061    0.723894954837391  0.0000
  Ge     Ge        0.149585598770664    0.688832653722673    0.303822801920391  0.0000
  Ge     Ge        0.674905966084688    0.305560400529472    0.041597294486576  0.0000
  Ge     Ge        0.826261680839865    0.790032308748765    0.043976422892254  0.0000
  Ge     Ge        0.351359626331668    0.397431845086665    0.968801549596810  0.0000
  Ge     Ge        0.328107535257474    0.797294467858705    0.984305832461223  0.0000
  Ge     Ge        0.172786642509866    0.318438977089812    0.974414333532116  0.0000
  Ge     Ge        0.648070138802090    0.712424426049781    0.036765715383036  0.0000
  Ge     Ge        0.854600234743184    0.387508590288571    0.046937203788482  0.0000
  Si     Si        0.654318647662919    0.718950909629024    0.724882443860398  0.0000
  Si     Si        0.830507215733798    0.786474629871851    0.732673682475753  0.0000
  Si     Si        0.350710855730855    0.363688210399990    0.283691765180633  0.0000
  Si     Si        0.151503988169992    0.717733839718030    0.991142187565394  0.0000
  O1     O1        0.128177891804968    0.138188843516776    0.391777123132733  0.0000
  O1     O1        0.378957284698928    0.891097495897396    0.402180342781019  0.0000
  O1     O1        0.920458340776318    0.280551024150674    0.639741948643854  0.0000
  O3     O3        0.601365276285014    0.840907838735787    0.637469496908486  0.0000
  O3     O3        0.867330571613140    0.941946293354556    0.648362188062166  0.0000
  O1     O1        0.623420112289961    0.193016271346428    0.626943893032073  0.0000
  O1     O1        0.084336911774988    0.795375743300328    0.393053184305189  0.0000
  O3     O3        0.412475885013736    0.250699565219809    0.359416424313924  0.0000
  O1     O1        0.972947925229585    0.047607267827980    0.457320795430764  0.0000
  O1     O1        0.476114937802932    0.059706223701908    0.568006018790892  0.0000
  O1     O1        0.027605032418108    0.023842903287718    0.207759315264344  0.0000
  O1     O1        0.526527341648221    0.007230845664019    0.322431198385216  0.0000
  O1     O1        0.026022802232010    0.017076785851821    0.703042372684337  0.0000
  O1     O1        0.527219344784724    0.041033128248194    0.819127494653402  0.0000
  O1     O1        0.630600905399000    0.155472154580348    0.141620141333474  0.0000
  O1     O1        0.877398774558576    0.926521180638681    0.135601121688642  0.0000
  O1     O1        0.417590321494669    0.292375802090003    0.882408214592233  0.0000
  O3     O3        0.091913576847575    0.827437711696105    0.907701307224310  0.0000
  O1     O1        0.374345060813351    0.949772039355816    0.890568964837957  0.0000
  O1     O1        0.124039273612823    0.188905545582944    0.871737157795412  0.0000
  O1     O1        0.578635381758947    0.813628994724672    0.117101358750208  0.0000
  O1     O1        0.917182994889089    0.271818451342597    0.140796622452866  0.0000
  O1     O1        0.477851881629151    0.080932445998975    0.072222370193146  0.0000
  O1     O1        0.978849996911204    0.069660304901114    0.951448881818816  0.0000
  O1     O1        0.156135855226823    0.481715377736164    0.357635833795998  0.0000
  O3     O3        0.340607792174610    0.545438964281570    0.349830840699038  0.0000
  O3     O3        0.852479762351079    0.607055272573555    0.672140175673284  0.0000
  O3     O3        0.658074473852511    0.534607683534534    0.664653291698016  0.0000
  O3     O3        0.271157631595245    0.257664205478328    0.287784762105521  0.0000
  O1     O1        0.234818400633439    0.797314492267602    0.311718479501650  0.0000
  O1     O1        0.769825461821872    0.297354592657964    0.718547066110920  0.0000
  O2     O2        0.739147008134104    0.802014650040693    0.735771997261775  0.0000
  O1     O1        0.142044243690898    0.278290591335896    0.132879059353108  0.0000
  O1     O1        0.361392982493983    0.802205535453113    0.143510684908864  0.0000
  O1     O1        0.888106545089493    0.399861427866215    0.887596999391479  0.0000
  O3     O3        0.622672745087063    0.699356442962495    0.872763254002449  0.0000
  O3     O3        0.858856867183298    0.795715740299683    0.882315742206103  0.0000
  O1     O1        0.642193959043796    0.293663792009040    0.882685289139809  0.0000
  O3     O3        0.122406773822693    0.685844630715642    0.139506169175909  0.0000
  O3     O3        0.375098350982062    0.406649715708128    0.134514369171673  0.0000
  O1     O1        0.659232022644430    0.507798694366438    0.096964495619645  0.0000
  O1     O1        0.840478278100532    0.584240016093078    0.105870285803962  0.0000
  O1     O1        0.344806233905167    0.604404775063593    0.914372743046053  0.0000
  O3     O3        0.162413838566755    0.534106310389078    0.929518061876604  0.0000
  O1     O1        0.770295989589653    0.273232545499443    0.040141315066055  0.0000
  O1     O1        0.731473985832703    0.828618338865998    0.050748812492106  0.0000
  O1     O1        0.267594528140954    0.282882712127532    0.960908537250714  0.0000
  O3     O3        0.231020392130080    0.823508237616684    0.992080912160769  0.0000
