data_c00224.vasp
_audit_creation_method             Generated by GULP
_audit_author_name                 Salvador R. G. Balestra
_symmetry_space_group_name_H-M     'P 1             '
_symmetry_Int_Tables_number        1

loop_
_symmetry_equiv_pos_site_id
_symmetry_equiv_pos_as_xyz
_cell_length_a                       17.8699
_cell_length_b                        7.8983
_cell_length_c                       10.2253
_cell_angle_alpha                   87.5203
_cell_angle_beta                    90.1181
_cell_angle_gamma                   90.2976

loop_
_atom_site_label
_atom_site_type_symbol
_atom_site_fract_x
_atom_site_fract_y
_atom_site_fract_z
_atom_site_charge
  Ge     Ge        0.052090000000021    0.000000000000000    0.372269999999958  0.0000
  Ge     Ge        0.445218929011392    0.038171945857647    0.363340793494078  0.0000
  Ge     Ge        0.941836709354752    0.044130418929471    0.616957352757888  0.0000
  Ge     Ge        0.551970540216240    0.054610551725116    0.616746652141305  0.0000
  Ge     Ge        0.555599619660629    0.041808925351467    0.118807227658354  0.0000
  Ge     Ge        0.942395855244341    0.024082746045541    0.122088263743547  0.0000
  Ge     Ge        0.447022206775264    0.067440886961831    0.870900288233340  0.0000
  Ge     Ge        0.047494500395482    0.040571543594614    0.870933844913939  0.0000
  Ge     Ge        0.170292292435245    0.294288416263354    0.251792289914550  0.0000
  Ge     Ge        0.330900605243473    0.744872759791123    0.257461254114617  0.0000
  Ge     Ge        0.833331565403703    0.340568280702613    0.681449133814388  0.0000
  Ge     Ge        0.651108107756984    0.368098213472267    0.684349317549360  0.0000
  Ge     Ge        0.150255691452203    0.695579636724583    0.265248315276148  0.0000
  Ge     Ge        0.844545032262301    0.719870862739049    0.999925370939778  0.0000
  Ge     Ge        0.345919694746032    0.376737004408119    0.932915817313201  0.0000
  Ge     Ge        0.148224006098148    0.723247399549345    0.945671616046290  0.0000
  Ge     Ge        0.327220317550329    0.780117542590991    0.940827941472430  0.0000
  Ge     Ge        0.168309546828916    0.320596329019936    0.932312388483406  0.0000
  Ge     Ge        0.665692490058081    0.751876925740881    0.997565766463032  0.0000
  Ge     Ge        0.829089396326309    0.314304298400948    0.997391286923539  0.0000
  Si     Si        0.662949257363943    0.763215318639535    0.689000573246205  0.0000
  Si     Si        0.839041121048788    0.734444191285209    0.688167331965726  0.0000
  Si     Si        0.345983861996854    0.348495673209499    0.246129612371824  0.0000
  Si     Si        0.652579627918359    0.349501300806496    0.992717296030584  0.0000
  O1     O1        0.124939778943305    0.137421794434239    0.339349792326666  0.0000
  O1     O1        0.384404340055464    0.871439723282444    0.352537073838195  0.0000
  O1     O1        0.886292430051841    0.217863962606018    0.583662521142672  0.0000
  O3     O3        0.620495049946001    0.900829089699151    0.598133396542779  0.0000
  O3     O3        0.886306270873000    0.865391721715859    0.598693914101567  0.0000
  O1     O1        0.593883405360916    0.249703226241321    0.590559813543928  0.0000
  O1     O1        0.086744446296215    0.800027351348278    0.357475698361819  0.0000
  O3     O3        0.404405707931168    0.232044654705351    0.325959168369181  0.0000
  O1     O1        0.022266136969875    0.031683441268127    0.529583298749300  0.0000
  O1     O1        0.473793729199310    0.034105643417681    0.524950629380118  0.0000
  O1     O1        0.972025246302120    0.031548423900101    0.281468201754567  0.0000
  O1     O1        0.527671889778924    0.024147690976963    0.279247856628605  0.0000
  O1     O1        0.969471759395696    0.060485025349393    0.777262093608126  0.0000
  O1     O1        0.523373661346326    0.037758070195107    0.777605301009866  0.0000
  O3     O3        0.600202304898468    0.234226652344750    0.086526849523655  0.0000
  O1     O1        0.910239797966027    0.825632331318179    0.085454451493185  0.0000
  O1     O1        0.410765014446484    0.268429884312340    0.848185677279056  0.0000
  O1     O1        0.086127093794236    0.843755372668937    0.855969625722879  0.0000
  O1     O1        0.375826760388008    0.924069980031004    0.845731181067230  0.0000
  O1     O1        0.115294790528458    0.192743061368226    0.838488477137750  0.0000
  O1     O1        0.612720117704145    0.871847387365689    0.094504361136677  0.0000
  O1     O1        0.871144501459105    0.166863933604406    0.098553633938981  0.0000
  O1     O1        0.474360581746174    0.033795749428609    0.031564787671353  0.0000
  O1     O1        0.020034329254095    0.070294588845868    0.029954006879626  0.0000
  O1     O1        0.154712121147720    0.487095502121845    0.318543384673393  0.0000
  O3     O3        0.339791027494662    0.531958312381689    0.307273853593681  0.0000
  O3     O3        0.843809441966133    0.551143982303248    0.628864472840986  0.0000
  O3     O3        0.647495012688267    0.579302678548450    0.633624329953537  0.0000
  O3     O3        0.265624104212701    0.254791870547262    0.250200791330506  0.0000
  O1     O1        0.237375390558163    0.789284103285605    0.271299008023565  0.0000
  O1     O1        0.740129400301777    0.291271219699538    0.672694982029740  0.0000
  O2     O2        0.752497379871939    0.794200275562980    0.695214232762540  0.0000
  O1     O1        0.139780045594151    0.302573640115827    0.093129068757642  0.0000
  O1     O1        0.360208201885901    0.777409562518965    0.099469529472984  0.0000
  O1     O1        0.863169721300240    0.310553680847185    0.840818572887760  0.0000
  O3     O3        0.634311592539985    0.774880227761141    0.837537663259567  0.0000
  O3     O3        0.870360850624729    0.727179514314856    0.835774462954225  0.0000
  O3     O3        0.620131911910675    0.352080561147319    0.845595065182008  0.0000
  O1     O1        0.118837004502509    0.706181693155774    0.105822208544888  0.0000
  O3     O3        0.372235621805441    0.375940358961184    0.096635318086131  0.0000
  O3     O3        0.658254809536901    0.538140863280355    0.044171354442152  0.0000
  O1     O1        0.843210982207577    0.512397998416598    0.055635937165359  0.0000
  O1     O1        0.338123507508999    0.582149979424427    0.877664362847062  0.0000
  O1     O1        0.157012414978628    0.529521257679651    0.880235517675367  0.0000
  O3     O3        0.734697802232323    0.268013526314174    0.988809700651178  0.0000
  O1     O1        0.757693619290079    0.808575065357986    0.014359411233094  0.0000
  O1     O1        0.261361526639225    0.272942445005826    0.922054979060858  0.0000
  O1     O1        0.233749048237925    0.825284150739479    0.945760324142799  0.0000
