data_c00381.vasp
_audit_creation_method             Generated by GULP
_audit_author_name                 Salvador R. G. Balestra
_symmetry_space_group_name_H-M     'P 1             '
_symmetry_Int_Tables_number        1

loop_
_symmetry_equiv_pos_site_id
_symmetry_equiv_pos_as_xyz
_cell_length_a                       17.7211
_cell_length_b                        7.8118
_cell_length_c                       10.0886
_cell_angle_alpha                   92.0112
_cell_angle_beta                    90.4398
_cell_angle_gamma                   91.0973

loop_
_atom_site_label
_atom_site_type_symbol
_atom_site_fract_x
_atom_site_fract_y
_atom_site_fract_z
_atom_site_charge
  Ge     Ge        0.052090000000021    0.000000000000000    0.372269999999958  0.0000
  Ge     Ge        0.444841586201425    0.060183035433528    0.382137995187207  0.0000
  Ge     Ge        0.949013275052835    0.009461836088918    0.629235078731970  0.0000
  Ge     Ge        0.550974773512758    0.976761484634863    0.629169765446652  0.0000
  Ge     Ge        0.549319322170380    0.973195555598433    0.132841107738931  0.0000
  Ge     Ge        0.934310788314353    0.031842756083604    0.138109344026596  0.0000
  Ge     Ge        0.442629969716467    0.011621772553575    0.879792529443980  0.0000
  Ge     Ge        0.164415605172164    0.299725355619097    0.279988627662559  0.0000
  Ge     Ge        0.319884131746324    0.769796435848964    0.261191723519612  0.0000
  Ge     Ge        0.847697949125139    0.328525533612212    0.693456281004532  0.0000
  Ge     Ge        0.644493970634764    0.656789415244601    0.698849925114986  0.0000
  Ge     Ge        0.825612176515354    0.732546509146403    0.705252154650321  0.0000
  Ge     Ge        0.348693229909072    0.366303810199073    0.274397105274492  0.0000
  Ge     Ge        0.670131956600374    0.252731632697356    0.005913017066026  0.0000
  Ge     Ge        0.820493566301407    0.731112011282347    0.024145934407904  0.0000
  Ge     Ge        0.338388761400476    0.320687392564176    0.954527244044971  0.0000
  Ge     Ge        0.144219775411008    0.648947382910146    0.935392126309629  0.0000
  Ge     Ge        0.317111107130083    0.727056779105490    0.930039587478358  0.0000
  Ge     Ge        0.157243445216650    0.249351137101515    0.963281227959239  0.0000
  Ge     Ge        0.639043717790446    0.654025970028042    0.018198968803782  0.0000
  Si     Si        0.040242878226786    0.954490756009421    0.895191053974419  0.0000
  Si     Si        0.672333733746967    0.261570459763524    0.687827153995254  0.0000
  Si     Si        0.148531043674770    0.688273722195386    0.259873172647696  0.0000
  Si     Si        0.844597314510749    0.333122653258380    0.011889067772769  0.0000
  O1     O1        0.119653415107994    0.157736194647229    0.381322049229453  0.0000
  O1     O1        0.367296491904652    0.936623467514942    0.337389204709298  0.0000
  O1     O1        0.914921262176694    0.212894139726790    0.612968815608001  0.0000
  O1     O1        0.585770686158035    0.774737239235904    0.602611663010567  0.0000
  O1     O1        0.873230445861046    0.870776075263361    0.607306028327355  0.0000
  O3     O3        0.622622170322971    0.125956237696213    0.600869404773318  0.0000
  O3     O3        0.079245527864639    0.806624006366694    0.297577434821458  0.0000
  O1     O1        0.415429391379622    0.266439820369497    0.367094370499010  0.0000
  O1     O1        0.024590891707910    0.965220339731734    0.533568121245402  0.0000
  O1     O1        0.471008465215682    0.020168783142818    0.542663895833007  0.0000
  O1     O1        0.969329874002706    0.055662075655820    0.296483141670451  0.0000
  O1     O1        0.525409827631551    0.012372784613700    0.295394107847624  0.0000
  O3     O3        0.973409954714056    0.989297713315064    0.795506024542487  0.0000
  O1     O1        0.523888446019622    0.990496732289672    0.793441040262356  0.0000
  O1     O1        0.626621134640240    0.093471797166237    0.087358069262228  0.0000
  O1     O1        0.864616366001062    0.877228451938160    0.130718083808597  0.0000
  O1     O1        0.397449622972312    0.201042571235485    0.857623177993791  0.0000
  O3     O3        0.068741598259060    0.759015981410909    0.877398763879775  0.0000
  O1     O1        0.378662655737467    0.847901149912508    0.842144214310110  0.0000
  O3     O3        0.110174186321422    0.085626228139985    0.875567821936376  0.0000
  O1     O1        0.573884298859650    0.762132377748500    0.111319835862788  0.0000
  O3     O3        0.906236004933639    0.232307871355813    0.092536372261488  0.0000
  O1     O1        0.469469849032724    0.015417751673900    0.045056857036880  0.0000
  O3     O3        0.011561230128114    0.972273254033001    0.045239824860288  0.0000
  O3     O3        0.146117096099290    0.509410443732557    0.334563020128705  0.0000
  O1     O1        0.345734736809363    0.578026966741394    0.324583537429194  0.0000
  O1     O1        0.842124751625604    0.530121673359657    0.638111406901797  0.0000
  O3     O3        0.658161714606095    0.451523998471092    0.635237692641047  0.0000
  O1     O1        0.259977292899452    0.273486746197083    0.285419745263275  0.0000
  O3     O3        0.224575336870810    0.798036338105792    0.292881390432114  0.0000
  O3     O3        0.760543153224925    0.221761220104293    0.678252241778312  0.0000
  O1     O1        0.730206680140459    0.763573751372014    0.707332616164932  0.0000
  O1     O1        0.127333197796807    0.249499642563636    0.125256652269470  0.0000
  O1     O1        0.338359009536953    0.768593210665518    0.094910004584455  0.0000
  O3     O3        0.869958690934394    0.350504007091977    0.860732084497460  0.0000
  O1     O1        0.608443200120361    0.647606347169148    0.855586425197344  0.0000
  O1     O1        0.855573511021094    0.755608581607552    0.868279738078703  0.0000
  O3     O3        0.645129719360301    0.254601816269830    0.839892171107345  0.0000
  O3     O3        0.153179625424418    0.625072896885354    0.105977413030248  0.0000
  O1     O1        0.375666227187643    0.353196609508550    0.111254887115878  0.0000
  O1     O1        0.646032804508868    0.449223324380730    0.072717307175544  0.0000
  O3     O3        0.833959281847866    0.522443604284839    0.074686509519444  0.0000
  O1     O1        0.326127137938486    0.513860395443331    0.885708089076713  0.0000
  O1     O1        0.139891781645940    0.437908333421339    0.884045881022990  0.0000
  O3     O3        0.766372046646258    0.224343736485502    0.016463347310268  0.0000
  O1     O1        0.725109690797162    0.759610134520277    0.026062790400655  0.0000
  O1     O1        0.252524195372554    0.214163863872514    0.966192284291210  0.0000
  O1     O1        0.224059465875705    0.762326263202715    0.894481103563743  0.0000
