data_c00364.vasp
_audit_creation_method             Generated by GULP
_audit_author_name                 Salvador R. G. Balestra
_symmetry_space_group_name_H-M     'P 1             '
_symmetry_Int_Tables_number        1

loop_
_symmetry_equiv_pos_site_id
_symmetry_equiv_pos_as_xyz
_cell_length_a                       17.5304
_cell_length_b                        7.8447
_cell_length_c                       10.2858
_cell_angle_alpha                   89.7658
_cell_angle_beta                    91.1784
_cell_angle_gamma                   91.8958

loop_
_atom_site_label
_atom_site_type_symbol
_atom_site_fract_x
_atom_site_fract_y
_atom_site_fract_z
_atom_site_charge
  Ge     Ge        0.052090000000021    0.000000000000000    0.372269999999958  0.0000
  Ge     Ge        0.452717074762754    0.067090073489650    0.367797932333093  0.0000
  Ge     Ge        0.947753742976976    0.055739275016339    0.623884725798384  0.0000
  Ge     Ge        0.555057122508763    0.008447663756799    0.622720539919302  0.0000
  Ge     Ge        0.549635046634511    0.999208995378754    0.110305016948994  0.0000
  Ge     Ge        0.952944162144181    0.052226438667758    0.106716845012641  0.0000
  Ge     Ge        0.441822505258005    0.067868540457821    0.856945200849305  0.0000
  Ge     Ge        0.172390765490829    0.289749786433684    0.288455249121806  0.0000
  Ge     Ge        0.329161226548333    0.780637983791994    0.290927257903134  0.0000
  Ge     Ge        0.854542617271826    0.368933215824687    0.733078076384674  0.0000
  Ge     Ge        0.643097558472664    0.686613974557873    0.736730893288332  0.0000
  Ge     Ge        0.825495489229443    0.765365700661556    0.733358782957687  0.0000
  Ge     Ge        0.149422955006113    0.694988507564952    0.293169185308637  0.0000
  Ge     Ge        0.352999418324683    0.376173700552336    0.289742320481796  0.0000
  Ge     Ge        0.675867810246898    0.290656171677570    0.047265241838340  0.0000
  Ge     Ge        0.351849979264497    0.382203397764764    0.973321377389966  0.0000
  Ge     Ge        0.324784586034200    0.780793817908338    0.976584414382523  0.0000
  Ge     Ge        0.166700365806773    0.307365544872659    0.974683562735901  0.0000
  Ge     Ge        0.650825378413585    0.689287370209084    0.052775114635905  0.0000
  Ge     Ge        0.857295677186943    0.371619666054902    0.047779912234697  0.0000
  Si     Si        0.056634894497859    0.008953875542962    0.863806832172064  0.0000
  Si     Si        0.673497423728017    0.295395342746528    0.738334187395893  0.0000
  Si     Si        0.829603154592551    0.763295678053032    0.043685453099948  0.0000
  Si     Si        0.144281766302446    0.702065015897721    0.986198890970415  0.0000
  O1     O1        0.124202173672147    0.153210255389692    0.389660499820870  0.0000
  O1     O1        0.380515936527662    0.916190925147098    0.391083957233119  0.0000
  O1     O1        0.918432853093702    0.259294087884441    0.645001828190894  0.0000
  O1     O1        0.577661211196710    0.800000861755636    0.648949079561026  0.0000
  O1     O1        0.870082604851874    0.924086169831333    0.648227061625638  0.0000
  O3     O3        0.631747713024664    0.144683011495768    0.657711099232180  0.0000
  O1     O1        0.087644913007460    0.799670310463077    0.388960365216095  0.0000
  O1     O1        0.417547958767271    0.267201099129265    0.382952813900990  0.0000
  O1     O1        0.975798062670691    0.035993855378135    0.465372237046131  0.0000
  O1     O1        0.532130780815792    0.033415526200638    0.460137834017860  0.0000
  O1     O1        0.025387082074465    0.008490535271347    0.209326493721170  0.0000
  O1     O1        0.475927433549883    0.043921514951082    0.205887110773113  0.0000
  O3     O3        0.027586171410833    0.999576789392059    0.714946042062324  0.0000
  O1     O1        0.472701044337839    0.058380615101521    0.699939195923371  0.0000
  O1     O1        0.624501747471024    0.144785275125615    0.132944357680046  0.0000
  O3     O3        0.877375705222841    0.904865635237726    0.123854724864434  0.0000
  O1     O1        0.417016115976471    0.273524164484245    0.887924750267160  0.0000
  O2     O2        0.087061325438675    0.823650541997062    0.906512980801131  0.0000
  O1     O1        0.361741390007176    0.939038357221089    0.880858127554306  0.0000
  O3     O3        0.121411806190304    0.157880072662904    0.875061855765345  0.0000
  O1     O1        0.588524780117017    0.803336500600077    0.140016136911062  0.0000
  O1     O1        0.920211964631504    0.253258874170126    0.135978892337581  0.0000
  O1     O1        0.517270153114602    0.002898646040210    0.951016001583739  0.0000
  O3     O3        0.983612424696351    0.052736010382734    0.947135750715726  0.0000
  O1     O1        0.162384035296412    0.493545602667180    0.348014887551569  0.0000
  O1     O1        0.340324666141968    0.575101015652638    0.348605404830336  0.0000
  O1     O1        0.846844683913534    0.569988672493889    0.670680475035545  0.0000
  O3     O3        0.652876509823904    0.480219261015034    0.679741923137242  0.0000
  O1     O1        0.268383933124891    0.256042395714404    0.285223863787095  0.0000
  O1     O1        0.233274832051421    0.816052284129918    0.293069814201950  0.0000
  O3     O3        0.763926044760956    0.271117333667778    0.735525831866437  0.0000
  O1     O1        0.729638183935265    0.793436426963394    0.723773705789850  0.0000
  O1     O1        0.136685612165358    0.276429948790244    0.130630464556246  0.0000
  O1     O1        0.360707346941749    0.797188725758681    0.133085142246038  0.0000
  O1     O1        0.887518635087513    0.377500957102122    0.890444290071341  0.0000
  O1     O1        0.616177813067826    0.680171054822083    0.894972373730513  0.0000
  O3     O3        0.855997980300949    0.765630300997678    0.894602893777173  0.0000
  O3     O3        0.644360081113354    0.288256431888747    0.885682157988376  0.0000
  O3     O3        0.116141546636455    0.677064460129180    0.132503633391784  0.0000
  O1     O1        0.383185379246891    0.395479875995412    0.132184025015320  0.0000
  O1     O1        0.659280928634622    0.488821898097656    0.112034774701446  0.0000
  O3     O3        0.845656090939769    0.575979436865266    0.103852893967646  0.0000
  O1     O1        0.345506316824058    0.585826429179148    0.913371395805272  0.0000
  O3     O3        0.147919606541124    0.515055521684106    0.923254078588254  0.0000
  O1     O1        0.771217251066215    0.259458272984236    0.053073398686662  0.0000
  O3     O3        0.739798530809910    0.795021001208420    0.048230431145666  0.0000
  O1     O1        0.262932282170104    0.281620241880035    0.967582096795547  0.0000
  O3     O3        0.227031219088690    0.795463193930576    0.988090798715085  0.0000
