data_c00325.vasp
_audit_creation_method             Generated by GULP
_audit_author_name                 Salvador R. G. Balestra
_symmetry_space_group_name_H-M     'P 1             '
_symmetry_Int_Tables_number        1

loop_
_symmetry_equiv_pos_site_id
_symmetry_equiv_pos_as_xyz
_cell_length_a                       17.4909
_cell_length_b                        7.8637
_cell_length_c                       10.3413
_cell_angle_alpha                   91.1391
_cell_angle_beta                    89.5283
_cell_angle_gamma                   88.0514

loop_
_atom_site_label
_atom_site_type_symbol
_atom_site_fract_x
_atom_site_fract_y
_atom_site_fract_z
_atom_site_charge
  Ge     Ge        0.052090000000021    0.000000000000000    0.372269999999958  0.0000
  Ge     Ge        0.445089490113224    0.949595586362212    0.369493789211920  0.0000
  Ge     Ge        0.952278874581027    0.942615099895080    0.629342310680172  0.0000
  Ge     Ge        0.549411210487904    0.001826499545020    0.621563428980743  0.0000
  Ge     Ge        0.553616071376112    0.008440713478906    0.124251942219290  0.0000
  Ge     Ge        0.936828002304250    0.957339872818486    0.133102517319097  0.0000
  Ge     Ge        0.447288874587270    0.938348584128622    0.877107079609386  0.0000
  Ge     Ge        0.139464376529662    0.320490116493484    0.261863201526913  0.0000
  Ge     Ge        0.349508318998808    0.636160589963295    0.255064032059665  0.0000
  Ge     Ge        0.828586324619045    0.231332402205938    0.708511534495111  0.0000
  Ge     Ge        0.672306356131094    0.717100633971818    0.699317685281444  0.0000
  Ge     Ge        0.852672763489291    0.637676697902926    0.705646414658804  0.0000
  Ge     Ge        0.646518329019507    0.313446664136459    0.699044876195683  0.0000
  Ge     Ge        0.323503595703080    0.239224233272265    0.258696397167520  0.0000
  Ge     Ge        0.639177475659801    0.330088457423487    0.011533939067349  0.0000
  Ge     Ge        0.322397280308233    0.230435215697453    0.946157215327506  0.0000
  Ge     Ge        0.164216512879004    0.708360464364959    0.950431715016228  0.0000
  Ge     Ge        0.346110933517316    0.630289547174921    0.938415682286751  0.0000
  Ge     Ge        0.138681689099852    0.308642065766450    0.951249084916951  0.0000
  Ge     Ge        0.824892598645774    0.255361166618942    0.020754616826230  0.0000
  Si     Si        0.043755626957940    0.998997471553238    0.887250970227779  0.0000
  Si     Si        0.169504908039086    0.710308832304354    0.258666072336358  0.0000
  Si     Si        0.846033989367504    0.646721833186211    0.010691322702355  0.0000
  Si     Si        0.666771065857480    0.719390636969970    0.004730196673505  0.0000
  O1     O1        0.076935230334677    0.207028106254103    0.351946752831896  0.0000
  O1     O1        0.415646559334256    0.747359285482328    0.338679395422558  0.0000
  O1     O1        0.879014115345755    0.091305955216954    0.609511106593093  0.0000
  O1     O1        0.622621681199324    0.851087987951131    0.600986537163443  0.0000
  O1     O1        0.918645939276979    0.740788158927671    0.615699662190250  0.0000
  O1     O1        0.585064254154760    0.200619682634036    0.604131116942940  0.0000
  O3     O3        0.128935019573580    0.862415738561973    0.340089755480986  0.0000
  O1     O1        0.369096590072919    0.087945919224718    0.348537283257574  0.0000
  O1     O1        0.028562834943694    0.975375852003836    0.532837253031218  0.0000
  O1     O1        0.471966379902555    0.964199041421657    0.529329048808943  0.0000
  O1     O1        0.971695819948147    0.950497480618697    0.287355069463823  0.0000
  O1     O1        0.526084121822775    0.995119507989690    0.283332420365025  0.0000
  O3     O3        0.975432808248443    0.965726068814810    0.792348305639234  0.0000
  O1     O1        0.522579928702882    0.982606143559148    0.782105402720575  0.0000
  O1     O1        0.576343760206601    0.216624357088633    0.099913418918701  0.0000
  O3     O3        0.896301293666268    0.764091943726471    0.100492576043941  0.0000
  O1     O1        0.372016277280490    0.082423415353947    0.854538114570379  0.0000
  O3     O3        0.111813209144690    0.856640570353480    0.866349203410348  0.0000
  O1     O1        0.411624997449440    0.739003106798792    0.851871349455789  0.0000
  O3     O3        0.076942139876778    0.184609566030578    0.863453264838786  0.0000
  O3     O3        0.633203868972863    0.875627006157327    0.090258406300596  0.0000
  O1     O1        0.868846494900743    0.117806785445919    0.124345629590720  0.0000
  O1     O1        0.476463350360373    0.949560593916143    0.036327336292672  0.0000
  O3     O3        0.015163552266138    0.990665390779852    0.035681640188239  0.0000
  O3     O3        0.151527036000879    0.527327811632650    0.318929219216004  0.0000
  O1     O1        0.342881805343584    0.438702507825679    0.319281586997585  0.0000
  O1     O1        0.842198423589088    0.434285920567466    0.652689077991732  0.0000
  O1     O1        0.660055029914317    0.511655061455629    0.642354659399472  0.0000
  O1     O1        0.226798338812464    0.214153845014837    0.262225202700330  0.0000
  O3     O3        0.259804750553216    0.738900507958343    0.258190062059924  0.0000
  O1     O1        0.732254510207165    0.198626645809136    0.705761466275838  0.0000
  O1     O1        0.767804924771818    0.754691082773391    0.695282459210681  0.0000
  O1     O1        0.105381524060288    0.327882411626749    0.107657433031599  0.0000
  O1     O1        0.376309924196506    0.616787776234176    0.095998832419813  0.0000
  O1     O1        0.858551868492228    0.217400582999917    0.866510576193696  0.0000
  O3     O3        0.637344685290608    0.731860414460929    0.858030153826374  0.0000
  O3     O3        0.880799541895589    0.632917442415718    0.866758848012390  0.0000
  O1     O1        0.610003732492940    0.328432097449254    0.854127814769130  0.0000
  O3     O3        0.138357721147513    0.709752907745914    0.112567873538315  0.0000
  O1     O1        0.356654743541978    0.223222887923713    0.101978557035473  0.0000
  O3     O3        0.641552468676885    0.541620855292662    0.064058827390902  0.0000
  O3     O3        0.844114533458108    0.461609076712646    0.071148627373991  0.0000
  O1     O1        0.335257814207184    0.428369488639938    0.880717328049282  0.0000
  O1     O1        0.146924848019246    0.506862010056129    0.889198025664447  0.0000
  O1     O1        0.728087215389228    0.233651193735074    0.023841330494097  0.0000
  O2     O2        0.759139318429047    0.723654986898335    0.997580949298699  0.0000
  O1     O1        0.226019040678213    0.201074720590908    0.953164235602634  0.0000
  O1     O1        0.259550671824287    0.743312445026526    0.935861372238038  0.0000
