data_c00357.vasp
_audit_creation_method             Generated by GULP
_audit_author_name                 Salvador R. G. Balestra
_symmetry_space_group_name_H-M     'P 1             '
_symmetry_Int_Tables_number        1

loop_
_symmetry_equiv_pos_site_id
_symmetry_equiv_pos_as_xyz
_cell_length_a                       17.5389
_cell_length_b                        7.8492
_cell_length_c                       10.2980
_cell_angle_alpha                   91.7805
_cell_angle_beta                    90.4831
_cell_angle_gamma                   88.7002

loop_
_atom_site_label
_atom_site_type_symbol
_atom_site_fract_x
_atom_site_fract_y
_atom_site_fract_z
_atom_site_charge
  Ge     Ge        0.052090000000021    0.000000000000000    0.372269999999958  0.0000
  Ge     Ge        0.448315645065853    0.952410734222594    0.365008072970419  0.0000
  Ge     Ge        0.945993137934748    0.934099500853869    0.620732378164737  0.0000
  Ge     Ge        0.550741054808713    0.992045638105200    0.621141956118499  0.0000
  Ge     Ge        0.544021584590232    0.010758020317671    0.103732692526286  0.0000
  Ge     Ge        0.953851564538408    0.948453280744532    0.108427751642059  0.0000
  Ge     Ge        0.435155670943297    0.939143441260321    0.853314678873592  0.0000
  Ge     Ge        0.146580553320053    0.306167992310764    0.288685701208057  0.0000
  Ge     Ge        0.351864469292428    0.637963207286426    0.280652179593141  0.0000
  Ge     Ge        0.823682072440413    0.223778579255873    0.729904737845626  0.0000
  Ge     Ge        0.668842609080286    0.695508338624016    0.727350354268475  0.0000
  Ge     Ge        0.851758321872627    0.622208938021861    0.725909391190877  0.0000
  Ge     Ge        0.170480698959671    0.712563639066514    0.282089209196186  0.0000
  Ge     Ge        0.325949828075898    0.231048682623746    0.282927057759103  0.0000
  Ge     Ge        0.647813039244206    0.319770121273286    0.049582353121672  0.0000
  Ge     Ge        0.850649277444466    0.636372262495133    0.043130508606986  0.0000
  Ge     Ge        0.162521294391657    0.681147622374170    0.968730338868249  0.0000
  Ge     Ge        0.349423660803480    0.618625087213505    0.967136727221934  0.0000
  Ge     Ge        0.670052467550084    0.721542846740207    0.041109887184217  0.0000
  Ge     Ge        0.826471633448633    0.234350799906106    0.047384102389141  0.0000
  Si     Si        0.055890798352983    0.977926904868411    0.859425772523350  0.0000
  Si     Si        0.646680974430777    0.302737764286321    0.736935433126009  0.0000
  Si     Si        0.325446266786456    0.227735279520887    0.977508739603978  0.0000
  Si     Si        0.145342254022065    0.290106301988192    0.983206810542133  0.0000
  O1     O1        0.085050682482408    0.203899150030677    0.387050379352956  0.0000
  O1     O1        0.413659811229987    0.750859800106356    0.378542838251763  0.0000
  O1     O1        0.867003961828176    0.062794489608403    0.641755274326048  0.0000
  O1     O1        0.618328188703310    0.833263977200308    0.632114909305520  0.0000
  O1     O1        0.919655892604409    0.728958747737155    0.643120420607213  0.0000
  O3     O3        0.581934912171020    0.192251525347807    0.666826416941303  0.0000
  O1     O1        0.124722748321352    0.851113300678417    0.387827524977047  0.0000
  O1     O1        0.375418978434989    0.101645324908724    0.384407678571466  0.0000
  O1     O1        0.975101617402046    0.958959603027260    0.463258278572202  0.0000
  O1     O1        0.525744394816854    0.994950904109628    0.458487324544730  0.0000
  O1     O1        0.028216128017343    0.981075985955711    0.208687656956173  0.0000
  O1     O1        0.471220258525363    0.970691932178402    0.202763451181316  0.0000
  O3     O3        0.025273756966969    0.992267096613452    0.712915355662274  0.0000
  O1     O1        0.465805830810036    0.953130014055558    0.696326494330253  0.0000
  O1     O1        0.578003587501477    0.214634875188374    0.125530039077961  0.0000
  O1     O1        0.916152616949271    0.750742238780465    0.129748447690367  0.0000
  O3     O3        0.356679996153480    0.072182175983863    0.888477476454744  0.0000
  O3     O3        0.115380891249221    0.820423982640978    0.867985405566711  0.0000
  O1     O1        0.408109435648121    0.732433931582314    0.872878070289750  0.0000
  O2     O2        0.096913633603498    0.154130208723451    0.900021456432113  0.0000
  O1     O1        0.619307029572367    0.869875698662091    0.129872835895553  0.0000
  O1     O1        0.881831915452771    0.098438803436333    0.134803394693650  0.0000
  O1     O1        0.513324913302902    0.991874857877302    0.944596615933500  0.0000
  O3     O3        0.982298744545870    0.951392020698286    0.946845994236353  0.0000
  O1     O1        0.158743975201427    0.510590305048905    0.340776095865451  0.0000
  O1     O1        0.338813174605159    0.439433059042396    0.336336701574079  0.0000
  O1     O1        0.843231876728153    0.417098862625227    0.665268914555420  0.0000
  O3     O3        0.655398426156374    0.485360844244999    0.672710336033480  0.0000
  O1     O1        0.230945451877480    0.189812866755329    0.290140831489732  0.0000
  O1     O1        0.265861630294156    0.749962212583009    0.275063681335763  0.0000
  O3     O3        0.725885203029235    0.194885886145643    0.727794306153148  0.0000
  O1     O1        0.764934661665566    0.729116460382112    0.718491283765647  0.0000
  O3     O3        0.113289206409007    0.308094336266931    0.128137261947544  0.0000
  O1     O1        0.384114038766964    0.627589778659797    0.123009220020460  0.0000
  O1     O1        0.854477739112430    0.216243257497355    0.887756930988013  0.0000
  O1     O1        0.637224240156951    0.729872803878569    0.882767227168860  0.0000
  O1     O1        0.879581966458287    0.607220501884898    0.884776295088706  0.0000
  O3     O3        0.626100938047917    0.342501197811913    0.886082154776482  0.0000
  O1     O1        0.133803823124424    0.718439886286661    0.125619378626235  0.0000
  O3     O3        0.358702028811840    0.213252996224605    0.122977840441540  0.0000
  O1     O1        0.657346804236027    0.523790026364487    0.107235389542199  0.0000
  O1     O1        0.837944436154525    0.441107704284277    0.106121451357838  0.0000
  O3     O3        0.348956091372106    0.405024524850018    0.916733775431527  0.0000
  O3     O3        0.140615950839313    0.473003557823563    0.918975391869513  0.0000
  O1     O1        0.730726552663380    0.198592956734214    0.059545517183426  0.0000
  O1     O1        0.766187964714680    0.754301564979577    0.040188012918321  0.0000
  O2     O2        0.233658403606890    0.227069397911906    0.992463790777375  0.0000
  O1     O1        0.258648724668781    0.704642208073887    0.958604724951269  0.0000
