data_c00322.vasp
_audit_creation_method             Generated by GULP
_audit_author_name                 Salvador R. G. Balestra
_symmetry_space_group_name_H-M     'P 1             '
_symmetry_Int_Tables_number        1

loop_
_symmetry_equiv_pos_site_id
_symmetry_equiv_pos_as_xyz
_cell_length_a                       17.5920
_cell_length_b                        7.7972
_cell_length_c                       10.3648
_cell_angle_alpha                   90.9037
_cell_angle_beta                    89.7327
_cell_angle_gamma                   91.2873

loop_
_atom_site_label
_atom_site_type_symbol
_atom_site_fract_x
_atom_site_fract_y
_atom_site_fract_z
_atom_site_charge
  Ge     Ge        0.052090000000021    0.000000000000000    0.372269999999958  0.0000
  Ge     Ge        0.443282977009143    0.053864508693692    0.338886585201770  0.0000
  Ge     Ge        0.950126434441781    0.035873550707987    0.629386628206545  0.0000
  Ge     Ge        0.544531231639455    0.986038792730531    0.591890139033292  0.0000
  Ge     Ge        0.543136670393673    0.985550087199391    0.080897351890567  0.0000
  Ge     Ge        0.943351563883230    0.048463742023825    0.128115781275111  0.0000
  Ge     Ge        0.433966289565845    0.034411080877595    0.835305335158322  0.0000
  Ge     Ge        0.167132937490599    0.295658293316447    0.266918265942305  0.0000
  Ge     Ge        0.320567052585202    0.773565565269184    0.252163952289100  0.0000
  Ge     Ge        0.850824342701763    0.354062537254392    0.696623673972051  0.0000
  Ge     Ge        0.641242746708375    0.674761549282016    0.702085030328064  0.0000
  Ge     Ge        0.821962391343685    0.757893307845126    0.700698162990847  0.0000
  Ge     Ge        0.670388770487649    0.271058489870010    0.699960287214454  0.0000
  Ge     Ge        0.348818015542609    0.365913643006609    0.262142797922943  0.0000
  Ge     Ge        0.670594533159507    0.267722784899945    0.014034582303080  0.0000
  Ge     Ge        0.821251013864075    0.762587746894264    0.014600262220471  0.0000
  Ge     Ge        0.145929203316522    0.672440016066195    0.941112703716123  0.0000
  Ge     Ge        0.161985334674942    0.273362141254618    0.957924079232872  0.0000
  Ge     Ge        0.642271850201370    0.670403072164703    0.016761397833333  0.0000
  Ge     Ge        0.850092235876544    0.357378821998074    0.011407231921331  0.0000
  Si     Si        0.047107208814639    0.979534691935785    0.883302887413678  0.0000
  Si     Si        0.145049247470907    0.690882383780621    0.250532368248018  0.0000
  Si     Si        0.342076397654060    0.343469876937432    0.960254850924553  0.0000
  Si     Si        0.322391844152594    0.742840845041964    0.946536102548860  0.0000
  O1     O1        0.120847216280201    0.157928364506917    0.368410339712238  0.0000
  O1     O1        0.364467601036201    0.918488537368061    0.351336988548828  0.0000
  O1     O1        0.918022253820653    0.240576214508843    0.612612686472889  0.0000
  O1     O1        0.571977945882847    0.781072071437624    0.621576469306860  0.0000
  O1     O1        0.873357657141170    0.898465060859425    0.608584614911168  0.0000
  O1     O1        0.621278051137095    0.122123975704009    0.609201219973059  0.0000
  O3     O3        0.080956772745847    0.799220407260778    0.321279763436267  0.0000
  O1     O1        0.412979872957866    0.260925612546814    0.354910681563822  0.0000
  O1     O1        0.023823789018703    0.986411258159642    0.531002455756755  0.0000
  O1     O1        0.517168301418369    0.001230679704329    0.432203475749815  0.0000
  O1     O1        0.973638155655633    0.050949109603246    0.284862846026146  0.0000
  O1     O1        0.468902188340132    0.026011828792675    0.178740809773997  0.0000
  O3     O3        0.978843593828513    0.016614139071661    0.789722225962550  0.0000
  O1     O1        0.464549929513149    0.040430187589054    0.677812056825179  0.0000
  O1     O1        0.619033720517972    0.126823288105428    0.104656650492770  0.0000
  O1     O1        0.866725525184038    0.910772300256306    0.111413326070842  0.0000
  O3     O3        0.394794662794554    0.233412328750310    0.866373245300575  0.0000
  O3     O3        0.081011582135347    0.790799533844740    0.859273962184392  0.0000
  O3     O3        0.369746353864690    0.863486777352735    0.851430592339512  0.0000
  O3     O3        0.116481172222193    0.116876691477414    0.866579020390601  0.0000
  O1     O1        0.575639128233004    0.781537535249639    0.102146153883479  0.0000
  O1     O1        0.918483292188539    0.254286122046292    0.094453934470190  0.0000
  O1     O1        0.513976859370011    0.003938921927533    0.922621821211650  0.0000
  O3     O3        0.018127961121162    0.984982162128008    0.030909960913528  0.0000
  O3     O3        0.155744323701779    0.508296739971460    0.316806819851831  0.0000
  O1     O1        0.342477494585625    0.574206164131364    0.309009774751121  0.0000
  O1     O1        0.836967992003264    0.553963537475780    0.638507945129966  0.0000
  O1     O1        0.654981578930059    0.472691163954383    0.640021077210139  0.0000
  O1     O1        0.262415119564752    0.259482962569316    0.270981735999349  0.0000
  O3     O3        0.223505910925914    0.802147521800836    0.255958506407484  0.0000
  O1     O1        0.766324418192987    0.236725155945327    0.695242538284466  0.0000
  O1     O1        0.725865056751236    0.791482554733385    0.696527480619241  0.0000
  O1     O1        0.130672240111694    0.259786184959793    0.114879510341454  0.0000
  O3     O3        0.349876399417897    0.784676256003467    0.091684428028724  0.0000
  O1     O1        0.879033905003977    0.378211875814072    0.854365840380557  0.0000
  O1     O1        0.613179999727279    0.649077342750390    0.858904940749678  0.0000
  O1     O1        0.852882050405780    0.775694067544249    0.857923199928482  0.0000
  O1     O1        0.639383254468999    0.257294200794706    0.856822124895263  0.0000
  O3     O3        0.123553984238426    0.649710114803966    0.102872239138780  0.0000
  O3     O3        0.378403488747930    0.351591015336041    0.101469978337845  0.0000
  O1     O1        0.656599904914322    0.472162516103728    0.076634401868615  0.0000
  O1     O1        0.835846420868419    0.559251137062122    0.072338614163308  0.0000
  O2     O2        0.333036451206768    0.539796061230393    0.912914738506136  0.0000
  O1     O1        0.144272892563738    0.465824221213292    0.885474133790646  0.0000
  O1     O1        0.766680875083278    0.235734641401698    0.016006879302305  0.0000
  O1     O1        0.725136936858435    0.793291016033803    0.015409773301087  0.0000
  O3     O3        0.259447233541107    0.251388218222985    0.965072863118063  0.0000
  O3     O3        0.233455115264489    0.777087269371182    0.930908683455121  0.0000
