data_c00313.vasp
_audit_creation_method             Generated by GULP
_audit_author_name                 Salvador R. G. Balestra
_symmetry_space_group_name_H-M     'P 1             '
_symmetry_Int_Tables_number        1

loop_
_symmetry_equiv_pos_site_id
_symmetry_equiv_pos_as_xyz
_cell_length_a                       17.5961
_cell_length_b                        7.8478
_cell_length_c                       10.2733
_cell_angle_alpha                   90.1823
_cell_angle_beta                    89.9146
_cell_angle_gamma                   88.3384

loop_
_atom_site_label
_atom_site_type_symbol
_atom_site_fract_x
_atom_site_fract_y
_atom_site_fract_z
_atom_site_charge
  Ge     Ge        0.052090000000021    0.000000000000000    0.372269999999958  0.0000
  Ge     Ge        0.446721323566562    0.948336314643677    0.362154703470380  0.0000
  Ge     Ge        0.947298046404150    0.945232598659827    0.628677345895251  0.0000
  Ge     Ge        0.547559213260410    0.001976906220257    0.617864439655128  0.0000
  Ge     Ge        0.545625558242785    0.008108480927129    0.102013002221777  0.0000
  Ge     Ge        0.946352697488973    0.956139902813121    0.117650227706693  0.0000
  Ge     Ge        0.434408169559741    0.958250312661184    0.857023654961626  0.0000
  Ge     Ge        0.144087916345596    0.317689003387718    0.293204693578244  0.0000
  Ge     Ge        0.345562450748884    0.640009128724456    0.293019813470881  0.0000
  Ge     Ge        0.822885102292960    0.234666676525140    0.736214300493409  0.0000
  Ge     Ge        0.671410419076363    0.715198671032546    0.732467413707372  0.0000
  Ge     Ge        0.851842782224137    0.634765766010501    0.736344453630769  0.0000
  Ge     Ge        0.640762706649769    0.314672827839506    0.732923558060914  0.0000
  Ge     Ge        0.325835547147520    0.237159901116622    0.283313492052764  0.0000
  Ge     Ge        0.641055605892114    0.327153825620975    0.048049578752973  0.0000
  Ge     Ge        0.845185622452800    0.643019969027445    0.054544814096710  0.0000
  Ge     Ge        0.321126115666192    0.256546467200999    0.971460853079462  0.0000
  Ge     Ge        0.164680451862996    0.725213510444064    0.987301314641464  0.0000
  Ge     Ge        0.136412601256018    0.325171689674550    0.981707930405311  0.0000
  Ge     Ge        0.822359734083265    0.245102226626289    0.052212929089608  0.0000
  Si     Si        0.049051860014110    0.013570017438980    0.871634138404852  0.0000
  Si     Si        0.169400320044013    0.711875217757334    0.298058802148951  0.0000
  Si     Si        0.342818743506146    0.652584977694115    0.981583839141354  0.0000
  Si     Si        0.667891987162001    0.719236611897110    0.042865417752373  0.0000
  O1     O1        0.088261494771295    0.199313976871652    0.393308906270079  0.0000
  O1     O1        0.409872831219422    0.749344639934953    0.381423181489094  0.0000
  O1     O1        0.870611886842881    0.081203264413935    0.647659564767060  0.0000
  O1     O1        0.624237892045434    0.868294066862360    0.645399588857356  0.0000
  O1     O1        0.920980315550875    0.740179251194961    0.654362960792563  0.0000
  O1     O1        0.573670479542117    0.207275828900591    0.646994905446964  0.0000
  O3     O3        0.123371907280752    0.843611442008190    0.389290445423097  0.0000
  O1     O1        0.373718544928695    0.097106853708886    0.381786498733849  0.0000
  O1     O1        0.976836456192924    0.962288475020954    0.469458705191513  0.0000
  O1     O1        0.523755563584940    0.984705810641222    0.455196243426046  0.0000
  O1     O1        0.022341575960934    0.992631027470262    0.212222688097265  0.0000
  O1     O1        0.472268833202222    0.960635208412668    0.200021459392231  0.0000
  O3     O3        0.025843427393613    0.996192235794216    0.721503367524810  0.0000
  O1     O1        0.466656165831786    0.945847217163348    0.699029053729532  0.0000
  O1     O1        0.579107743650510    0.208374390714933    0.135555740461506  0.0000
  O1     O1        0.908155292515493    0.759099343100232    0.141059215623470  0.0000
  O1     O1        0.364672007501022    0.114844224426141    0.866999808318438  0.0000
  O3     O3        0.121608611816781    0.891704742921442    0.906064629643456  0.0000
  O3     O3        0.402877875332188    0.759796402498917    0.901882814172928  0.0000
  O3     O3        0.071294869849264    0.208530963157158    0.895880122018901  0.0000
  O3     O3        0.620601792519806    0.860400820610117    0.122453292846425  0.0000
  O1     O1        0.873342775724493    0.101956069474974    0.143644911647542  0.0000
  O1     O1        0.513909718079811    0.007778476743234    0.943860112232001  0.0000
  O3     O3        0.976465707440691    0.961405575862955    0.955825002382897  0.0000
  O3     O3        0.157997497854417    0.520715143124820    0.351802047350114  0.0000
  O1     O1        0.340759999596130    0.437439406585076    0.347273317138178  0.0000
  O1     O1        0.840223761069540    0.434348762899034    0.674608537521135  0.0000
  O1     O1        0.653421035011369    0.515431048446427    0.672038515630026  0.0000
  O1     O1        0.229976803567761    0.208502803614490    0.279314225029458  0.0000
  O3     O3        0.258340397179314    0.749703424705540    0.300334665675027  0.0000
  O1     O1        0.726818599130591    0.203646173719904    0.730534338795489  0.0000
  O1     O1        0.766803375254783    0.748943044987354    0.725512535929536  0.0000
  O1     O1        0.105595839919163    0.332179724275750    0.140196391006299  0.0000
  O3     O3        0.370464097475308    0.630346400373007    0.129526697009408  0.0000
  O1     O1        0.854274772511989    0.228179632584095    0.894110462807506  0.0000
  O3     O3        0.640646147163795    0.720954948409080    0.893084975212365  0.0000
  O1     O1        0.876516634898634    0.618630013783952    0.897114749499982  0.0000
  O1     O1        0.609639223931971    0.333755535162573    0.890401133743138  0.0000
  O3     O3        0.138679808197770    0.723877367089253    0.149969649941755  0.0000
  O1     O1        0.358011803219174    0.222973243428321    0.124291977289714  0.0000
  O3     O3        0.652791243633879    0.532450135569359    0.103738774242175  0.0000
  O1     O1        0.836744318937249    0.444681741137523    0.117620116786292  0.0000
  O3     O3        0.334987410617784    0.465048695969168    0.920939270906013  0.0000
  O1     O1        0.140222625183822    0.531172196545704    0.924606312469713  0.0000
  O1     O1        0.726772903740837    0.215641413002459    0.050922659026949  0.0000
  O3     O3        0.757455995221430    0.751921303183376    0.048677187259027  0.0000
  O1     O1        0.225016028653654    0.229202854662672    0.973701049924100  0.0000
  O3     O3        0.261447592625946    0.752686116770744    0.977079012254621  0.0000
