data_c00341.vasp
_audit_creation_method             Generated by GULP
_audit_author_name                 Salvador R. G. Balestra
_symmetry_space_group_name_H-M     'P 1             '
_symmetry_Int_Tables_number        1

loop_
_symmetry_equiv_pos_site_id
_symmetry_equiv_pos_as_xyz
_cell_length_a                       17.7424
_cell_length_b                        7.8141
_cell_length_c                       10.1506
_cell_angle_alpha                   90.4949
_cell_angle_beta                    90.2476
_cell_angle_gamma                   90.7432

loop_
_atom_site_label
_atom_site_type_symbol
_atom_site_fract_x
_atom_site_fract_y
_atom_site_fract_z
_atom_site_charge
  Ge     Ge        0.052090000000021    0.000000000000000    0.372269999999958  0.0000
  Ge     Ge        0.435937661251462    0.054550633457345    0.369679714400295  0.0000
  Ge     Ge        0.950261860161222    0.031523643323141    0.628240677410234  0.0000
  Ge     Ge        0.545652621389896    0.998301211448093    0.615261386588784  0.0000
  Ge     Ge        0.545593643531566    0.000498969576734    0.124003307652287  0.0000
  Ge     Ge        0.935783545560787    0.057657831906743    0.137640648327933  0.0000
  Ge     Ge        0.440802388709137    0.045501707347886    0.869946029094562  0.0000
  Ge     Ge        0.163874826617921    0.298242183170023    0.263998848387641  0.0000
  Ge     Ge        0.317991607251276    0.759386895094183    0.258585740118077  0.0000
  Ge     Ge        0.850855872099709    0.352369711704517    0.695302853755096  0.0000
  Ge     Ge        0.643903518953136    0.681726471957885    0.680934593318944  0.0000
  Ge     Ge        0.822929969458264    0.757633469201335    0.692320442483045  0.0000
  Ge     Ge        0.671127629944254    0.278061411424997    0.687098197440344  0.0000
  Ge     Ge        0.666988207159720    0.282499388270123    0.006992373335979  0.0000
  Ge     Ge        0.816367002821196    0.772930482561992    0.013600108426184  0.0000
  Ge     Ge        0.335519772606027    0.350985313738877    0.935997592348221  0.0000
  Ge     Ge        0.317368862723775    0.757648434472972    0.934256330884216  0.0000
  Ge     Ge        0.154691082260781    0.285951209231027    0.948547764436321  0.0000
  Ge     Ge        0.638647978531142    0.687342874935766    0.003037824455448  0.0000
  Ge     Ge        0.845119776757086    0.367875486720584    0.015239970307712  0.0000
  Si     Si        0.041411570456967    0.987056290246509    0.893533505049019  0.0000
  Si     Si        0.145857077428163    0.689893939899572    0.257508610087468  0.0000
  Si     Si        0.341111781076223    0.360009498283655    0.249938473803048  0.0000
  Si     Si        0.145119223171046    0.681486945985206    0.942837939938527  0.0000
  O1     O1        0.121987354222953    0.151866983605597    0.364861623535674  0.0000
  O1     O1        0.367362413230711    0.899680379818997    0.354880506253630  0.0000
  O1     O1        0.917761072703493    0.236620209387192    0.612936898851344  0.0000
  O1     O1        0.579347145759595    0.795137026149948    0.591279892366501  0.0000
  O1     O1        0.875357503748270    0.894378749682668    0.598706982398250  0.0000
  O1     O1        0.619918107270711    0.137758086615748    0.591429429077458  0.0000
  O3     O3        0.077738359266337    0.801242265137985    0.309675369696687  0.0000
  O3     O3        0.401912932783670    0.254360616611422    0.331888267144222  0.0000
  O1     O1        0.027063821519276    0.986061902128009    0.535538007015350  0.0000
  O1     O1        0.466111187577216    0.051076561627105    0.531224759099545  0.0000
  O1     O1        0.969234549714172    0.052977725535535    0.296172969700755  0.0000
  O1     O1        0.516647355490274    0.008218954393884    0.285319304130202  0.0000
  O3     O3        0.972977085925546    0.997919785326317    0.793665405566652  0.0000
  O1     O1        0.519025723848820    0.011153964197828    0.779888619508200  0.0000
  O1     O1        0.620661717213836    0.137220476362308    0.102850832269704  0.0000
  O1     O1        0.861108830962795    0.920033909325130    0.113315565503921  0.0000
  O1     O1        0.398039475780186    0.239133338114181    0.844178579982505  0.0000
  O2     O2        0.078152666611082    0.797138609129094    0.887096209162237  0.0000
  O1     O1        0.371131799313170    0.892303630148647    0.843367888759270  0.0000
  O3     O3        0.101795465085124    0.136976448687574    0.860282145930506  0.0000
  O1     O1        0.570029713538734    0.793465998139000    0.086582928728552  0.0000
  O1     O1        0.909361128905343    0.264056817846086    0.110114851623938  0.0000
  O1     O1        0.467965181743862    0.052322097274965    0.033119345015862  0.0000
  O3     O3        0.012386725249244    0.004243616616851    0.041935733588295  0.0000
  O3     O3        0.146222074928749    0.503674565458846    0.323034170704918  0.0000
  O3     O3        0.335519116666852    0.551283391927163    0.307148253633547  0.0000
  O1     O1        0.837770393221864    0.552175848106919    0.633879284005519  0.0000
  O1     O1        0.657828170115949    0.479702357174967    0.622417517227940  0.0000
  O3     O3        0.259934110961130    0.265223478858842    0.258890593269800  0.0000
  O3     O3        0.222867083721549    0.794709952199051    0.284966088711222  0.0000
  O1     O1        0.765991081909253    0.239772863149921    0.689463040891172  0.0000
  O1     O1        0.728034042808050    0.795568115660310    0.682378158047059  0.0000
  O1     O1        0.127231760585284    0.264454300914778    0.109547066315127  0.0000
  O1     O1        0.341828928480923    0.790167685548615    0.097323413670905  0.0000
  O1     O1        0.878272157119230    0.376445308900498    0.856895067841084  0.0000
  O1     O1        0.613118094119301    0.663365516494289    0.840699483086661  0.0000
  O1     O1        0.849259260115028    0.778019062609592    0.855447959042295  0.0000
  O1     O1        0.637195284138067    0.266955909812562    0.845949220134677  0.0000
  O2     O2        0.143206635127434    0.646667309032171    0.100651412530058  0.0000
  O3     O3        0.365626711847298    0.370764353062053    0.098705891777744  0.0000
  O1     O1        0.650849263980188    0.486748587707091    0.065597474534394  0.0000
  O1     O1        0.830311941053634    0.569635421938486    0.074366793665928  0.0000
  O1     O1        0.331667672162536    0.553506083305872    0.877746005910748  0.0000
  O3     O3        0.141094458247826    0.491025641751942    0.883926352446785  0.0000
  O1     O1        0.762234027222438    0.250059800158596    0.011850523486793  0.0000
  O1     O1        0.721007040426115    0.806599714686726    0.012501481861106  0.0000
  O1     O1        0.249073484784113    0.247792031903002    0.934653102981380  0.0000
  O3     O3        0.221243853531627    0.786347827643049    0.914099995541334  0.0000
