data_c00384.vasp
_audit_creation_method             Generated by GULP
_audit_author_name                 Salvador R. G. Balestra
_symmetry_space_group_name_H-M     'P 1             '
_symmetry_Int_Tables_number        1

loop_
_symmetry_equiv_pos_site_id
_symmetry_equiv_pos_as_xyz
_cell_length_a                       17.7434
_cell_length_b                        7.8159
_cell_length_c                       10.0534
_cell_angle_alpha                   92.1602
_cell_angle_beta                    90.5352
_cell_angle_gamma                   89.0119

loop_
_atom_site_label
_atom_site_type_symbol
_atom_site_fract_x
_atom_site_fract_y
_atom_site_fract_z
_atom_site_charge
  Ge     Ge        0.052090000000021    0.000000000000000    0.372269999999958  0.0000
  Ge     Ge        0.445470953308772    0.968671623828158    0.368896531042320  0.0000
  Ge     Ge        0.943085993806345    0.917616565908354    0.616329082299862  0.0000
  Ge     Ge        0.549368065913634    0.980297334348853    0.625391838853762  0.0000
  Ge     Ge        0.539646838547669    0.022072484381350    0.099205329476730  0.0000
  Ge     Ge        0.945964784666228    0.962660843007230    0.115010842257616  0.0000
  Ge     Ge        0.428306684224545    0.947039977088764    0.848711029318634  0.0000
  Ge     Ge        0.143104607263718    0.318121571879464    0.296007198990770  0.0000
  Ge     Ge        0.345109185095343    0.651161417790190    0.296359834800286  0.0000
  Ge     Ge        0.818387902554831    0.207235806842451    0.729634440086304  0.0000
  Ge     Ge        0.663487666017108    0.680185788080137    0.718540962503419  0.0000
  Ge     Ge        0.847346815153192    0.609969798572687    0.719253949157105  0.0000
  Ge     Ge        0.323778403163925    0.244694289625356    0.286340681046750  0.0000
  Ge     Ge        0.647244204249257    0.332252883403592    0.060225630786744  0.0000
  Ge     Ge        0.843297483525517    0.650008818572197    0.040876806199930  0.0000
  Ge     Ge        0.316130066059044    0.247665557337121    0.967277929103235  0.0000
  Ge     Ge        0.161424784990048    0.717280658720113    0.986509547585405  0.0000
  Ge     Ge        0.134127233388532    0.314743082933763    0.976864239332177  0.0000
  Ge     Ge        0.664099531521339    0.731044307938385    0.037305693263803  0.0000
  Ge     Ge        0.818350581763079    0.243491242647770    0.061922613898072  0.0000
  Si     Si        0.045684775633562    0.998974239734033    0.864127813776889  0.0000
  Si     Si        0.647892385826768    0.292133629806920    0.734717340773063  0.0000
  Si     Si        0.169861134549250    0.712973162159439    0.305079362097123  0.0000
  Si     Si        0.337095645105262    0.648494600254030    0.977630429901257  0.0000
  O1     O1        0.087943043204384    0.201595065261117    0.397765897776986  0.0000
  O1     O1        0.411140938299788    0.765304447982663    0.383686349559181  0.0000
  O1     O1        0.865109054783727    0.042283316108671    0.650423911584324  0.0000
  O1     O1        0.616214625906025    0.821857778246768    0.619158503893393  0.0000
  O1     O1        0.913192278028803    0.712019425290628    0.627513655372626  0.0000
  O3     O3        0.577593089948317    0.173036217004994    0.701402870732831  0.0000
  O3     O3        0.122823074745934    0.847661544745588    0.396146972109405  0.0000
  O1     O1        0.370602799511909    0.110146009954502    0.388972964827047  0.0000
  O1     O1        0.972995946555776    0.957156005181304    0.458326294262233  0.0000
  O1     O1        0.523307419038188    0.013948789942068    0.461404007774540  0.0000
  O1     O1        0.025382318489920    0.990859575901679    0.206317477097132  0.0000
  O1     O1        0.468098187377161    0.987000321026574    0.202977147410379  0.0000
  O3     O3        0.023115668993451    0.964717981504810    0.710797306876318  0.0000
  O1     O1        0.463705609058989    0.927029061775175    0.690162137912157  0.0000
  O1     O1        0.570071199657618    0.232139452144603    0.113310145734353  0.0000
  O1     O1        0.905565570113238    0.767612139059986    0.135401167588067  0.0000
  O1     O1        0.360191655273529    0.105092104268268    0.859246415113309  0.0000
  O3     O3        0.115993055885353    0.879413859911719    0.906996713989787  0.0000
  O3     O3        0.395608714065501    0.749603261075185    0.891876329404008  0.0000
  O3     O3        0.069350174248831    0.196138198356556    0.884663813210659  0.0000
  O1     O1        0.616225405441981    0.889078789320092    0.124584712177495  0.0000
  O1     O1        0.879410469733424    0.119950807310543    0.150100028650418  0.0000
  O1     O1        0.507829164083297    0.996804961175918    0.938493429905895  0.0000
  O3     O3        0.971657163117333    0.962026498504308    0.947686557964032  0.0000
  O3     O3        0.157817744802511    0.523423219460982    0.359278892554289  0.0000
  O1     O1        0.340729209043826    0.449060712037592    0.349866130491553  0.0000
  O1     O1        0.843114824022863    0.399460229059618    0.666482337622843  0.0000
  O3     O3        0.643324422582290    0.471654045203699    0.661308810629375  0.0000
  O1     O1        0.228668008182674    0.212644263660301    0.281544604872600  0.0000
  O3     O3        0.257772463174457    0.755527583766030    0.309629237936191  0.0000
  O3     O3        0.722603643406184    0.181502627908397    0.697231248086524  0.0000
  O1     O1        0.759042312233555    0.704948127084816    0.709992172448953  0.0000
  O1     O1        0.104448179783953    0.326350623266157    0.139124337989970  0.0000
  O3     O3        0.367134795646917    0.639508903469266    0.128339606124827  0.0000
  O1     O1        0.837851856067487    0.203430010792734    0.896329789714422  0.0000
  O1     O1        0.630726465480319    0.731328274844119    0.875261417364029  0.0000
  O1     O1        0.876836066458357    0.617608256169679    0.882247562165714  0.0000
  O3     O3        0.656702956625976    0.355536060058754    0.888731562745205  0.0000
  O3     O3        0.138984488516216    0.716435309182089    0.153396614808707  0.0000
  O1     O1        0.353871667022820    0.222772390370561    0.123030956804453  0.0000
  O1     O1        0.648150599953337    0.541452709626348    0.115126805383362  0.0000
  O1     O1        0.829571176475307    0.456681731821622    0.107721361404207  0.0000
  O3     O3        0.327476634480993    0.456896677592941    0.918066359104717  0.0000
  O1     O1        0.137592906010563    0.519641900604148    0.920100121282195  0.0000
  O1     O1        0.725765543830230    0.210315667929462    0.098605355390742  0.0000
  O1     O1        0.759291209292696    0.764821510593201    0.032631037901765  0.0000
  O1     O1        0.221032894760145    0.216014422083964    0.967874509434847  0.0000
  O3     O3        0.257025078315098    0.749577581576113    0.974157443864920  0.0000
