data_c00324.vasp
_audit_creation_method             Generated by GULP
_audit_author_name                 Salvador R. G. Balestra
_symmetry_space_group_name_H-M     'P 1             '
_symmetry_Int_Tables_number        1

loop_
_symmetry_equiv_pos_site_id
_symmetry_equiv_pos_as_xyz
_cell_length_a                       17.7142
_cell_length_b                        7.8598
_cell_length_c                       10.4783
_cell_angle_alpha                   90.5424
_cell_angle_beta                    89.9082
_cell_angle_gamma                   89.8283

loop_
_atom_site_label
_atom_site_type_symbol
_atom_site_fract_x
_atom_site_fract_y
_atom_site_fract_z
_atom_site_charge
  Ge     Ge        0.052090000000021    0.000000000000000    0.372269999999958  0.0000
  Ge     Ge        0.447593813661343    0.976316185855287    0.384278046757432  0.0000
  Ge     Ge        0.955586813701588    0.989941471883567    0.633657007720285  0.0000
  Ge     Ge        0.553041502500009    0.969353547504381    0.635775502800367  0.0000
  Ge     Ge        0.559691933623722    0.968454960919999    0.142225434394228  0.0000
  Ge     Ge        0.941795919912266    0.989300985015724    0.127371874054724  0.0000
  Ge     Ge        0.451741932180182    0.969495811364549    0.892737047899624  0.0000
  Ge     Ge        0.146463073335694    0.317768145450173    0.270396843101595  0.0000
  Ge     Ge        0.346728877747104    0.665302324923641    0.269331609981695  0.0000
  Ge     Ge        0.854947309161397    0.302964639926705    0.712051546432253  0.0000
  Ge     Ge        0.653367170320769    0.657556171345872    0.716049254681241  0.0000
  Ge     Ge        0.833246316323514    0.714039446338013    0.716966265436458  0.0000
  Ge     Ge        0.674748936869874    0.248436989650699    0.709447215811880  0.0000
  Ge     Ge        0.328346923976252    0.261488988669074    0.271418588492117  0.0000
  Ge     Ge        0.674819404382291    0.248622132241375    0.018283603506010  0.0000
  Ge     Ge        0.328175585462402    0.250409300445502    0.962716413081537  0.0000
  Ge     Ge        0.168894532420390    0.703809534837480    0.955930838533137  0.0000
  Ge     Ge        0.349312000714904    0.655607445095363    0.955859066071723  0.0000
  Ge     Ge        0.145500061465328    0.301478131069765    0.963220377482628  0.0000
  Ge     Ge        0.653950707260811    0.651267700373992    0.027293120998174  0.0000
  Si     Si        0.051247087938170    0.986502027860826    0.889113706388425  0.0000
  Si     Si        0.169578446391944    0.712246969400094    0.262379790199563  0.0000
  Si     Si        0.833191931690095    0.699126425287276    0.018024024723863  0.0000
  Si     Si        0.853612595662630    0.303205176816076    0.011479454380145  0.0000
  O1     O1        0.085969464178122    0.203615805679407    0.363734571754556  0.0000
  O1     O1        0.410656325970653    0.778318618648468    0.356123976245009  0.0000
  O1     O1        0.918636739238336    0.191130615487544    0.621091766902374  0.0000
  O1     O1        0.591128725641542    0.768719105340363    0.623541630308301  0.0000
  O1     O1        0.883469877442600    0.844550334144794    0.620378390987170  0.0000
  O1     O1        0.623088491395915    0.117271869063262    0.612529093989167  0.0000
  O3     O3        0.122540527169860    0.856843754966240    0.334024929569827  0.0000
  O1     O1        0.377609663927108    0.123163870629795    0.364338068972565  0.0000
  O1     O1        0.026415347085031    0.958934641255730    0.527313597522051  0.0000
  O1     O1        0.476338096303824    0.991737857574955    0.540660049390562  0.0000
  O1     O1        0.972102144430065    0.978171949889439    0.281706879258231  0.0000
  O1     O1        0.528029511238589    0.003814640545569    0.294942591340117  0.0000
  O3     O3        0.986126307024528    0.955530765958790    0.788670132015471  0.0000
  O1     O1        0.524437386272289    0.002676030893793    0.791854352143377  0.0000
  O1     O1        0.635353919901191    0.098717657328979    0.112496273699365  0.0000
  O3     O3        0.876722978823898    0.826925278307219    0.111198689668321  0.0000
  O1     O1        0.377335039674054    0.108506706931273    0.871602043392186  0.0000
  O3     O3        0.117776437055445    0.847987792787078    0.870153910087923  0.0000
  O1     O1        0.415610362579153    0.767549019757359    0.873482609201995  0.0000
  O3     O3        0.086109139170556    0.174005406859837    0.873054787138273  0.0000
  O1     O1        0.593264624584786    0.764296782533590    0.121761259638367  0.0000
  O3     O3        0.905337508706400    0.191815993804211    0.103432053189441  0.0000
  O1     O1        0.483908614823616    0.005535227025961    0.045795708288767  0.0000
  O3     O3        0.020064058541484    0.959645343184556    0.032225752798158  0.0000
  O3     O3        0.155488108429105    0.526595554538813    0.323344772699461  0.0000
  O1     O1        0.341928413356382    0.464871589249679    0.328996004420035  0.0000
  O1     O1        0.846241357519951    0.507439710557239    0.663497632120793  0.0000
  O1     O1        0.663752632668200    0.455379532570850    0.659154256502172  0.0000
  O1     O1        0.233551430578974    0.221272501483415    0.273519901082750  0.0000
  O3     O3        0.257647064322278    0.759125583547462    0.271230949619664  0.0000
  O1     O1        0.769159350901910    0.201092501294845    0.703541713444881  0.0000
  O1     O1        0.739098232873426    0.761154854165225    0.712478440344931  0.0000
  O1     O1        0.112261505605640    0.308581366223477    0.117279643124809  0.0000
  O1     O1        0.376460393732862    0.660176830843561    0.113690686942547  0.0000
  O3     O3        0.886949350453698    0.296526480648291    0.869257344646607  0.0000
  O1     O1        0.622307455092353    0.657718753677317    0.872228879828997  0.0000
  O3     O3        0.862607414398472    0.727168116597689    0.875114718199325  0.0000
  O1     O1        0.642497826457854    0.235966980410327    0.864477858378998  0.0000
  O3     O3        0.144480619887290    0.696325074332828    0.115671710857011  0.0000
  O1     O1        0.360932601994523    0.248318343271318    0.117534677516727  0.0000
  O1     O1        0.654318447475773    0.446493550139595    0.080117356272513  0.0000
  O2     O2        0.847259079994821    0.500963540962853    0.057325326604165  0.0000
  O1     O1        0.341751585224959    0.451481263771987    0.901810740489850  0.0000
  O1     O1        0.152108585688703    0.500285157575894    0.899423907315834  0.0000
  O3     O3        0.771256110905990    0.219805893343975    0.009834624916082  0.0000
  O3     O3        0.744368362106403    0.735635705263040    0.027080992590976  0.0000
  O1     O1        0.233575213157882    0.208509991747791    0.966227984988330  0.0000
  O1     O1        0.262272286071955    0.752913867859959    0.943048568583659  0.0000
