data_c00347.vasp
_audit_creation_method             Generated by GULP
_audit_author_name                 Salvador R. G. Balestra
_symmetry_space_group_name_H-M     'P 1             '
_symmetry_Int_Tables_number        1

loop_
_symmetry_equiv_pos_site_id
_symmetry_equiv_pos_as_xyz
_cell_length_a                       17.5915
_cell_length_b                        7.8473
_cell_length_c                       10.2798
_cell_angle_alpha                   91.2762
_cell_angle_beta                    90.4658
_cell_angle_gamma                   88.8051

loop_
_atom_site_label
_atom_site_type_symbol
_atom_site_fract_x
_atom_site_fract_y
_atom_site_fract_z
_atom_site_charge
  Ge     Ge        0.052090000000021    0.000000000000000    0.372269999999958  0.0000
  Ge     Ge        0.450637970470769    0.945816293135919    0.355393757286370  0.0000
  Ge     Ge        0.946032705901559    0.939444538464864    0.623239266233908  0.0000
  Ge     Ge        0.553019971761770    0.990049874936530    0.610119200615884  0.0000
  Ge     Ge        0.545918366478187    0.000372210126466    0.092376312201242  0.0000
  Ge     Ge        0.949440060713785    0.952206378882200    0.112350603148391  0.0000
  Ge     Ge        0.436340450800113    0.937113018437000    0.841912131671054  0.0000
  Ge     Ge        0.148071103405058    0.308922081494871    0.292289210712501  0.0000
  Ge     Ge        0.351496613101643    0.633518041539426    0.278438385337836  0.0000
  Ge     Ge        0.824545365699147    0.227754369692364    0.731669010204813  0.0000
  Ge     Ge        0.670668461221461    0.694478825320171    0.724614950958391  0.0000
  Ge     Ge        0.852059872438585    0.626563693117331    0.728303888655314  0.0000
  Ge     Ge        0.171470812058981    0.713259284090860    0.286330545061892  0.0000
  Ge     Ge        0.327082245639080    0.227763548382193    0.280767229327064  0.0000
  Ge     Ge        0.645243722604897    0.315679292878788    0.039225203879451  0.0000
  Ge     Ge        0.844764203898675    0.641480869323932    0.046812721196845  0.0000
  Ge     Ge        0.320550196052936    0.224129626049948    0.966651259178776  0.0000
  Ge     Ge        0.162284478717579    0.692843436196348    0.972276312239591  0.0000
  Ge     Ge        0.346447171584605    0.624385780752920    0.961527693692586  0.0000
  Ge     Ge        0.825672561621745    0.241488494914619    0.047867607087692  0.0000
  Si     Si        0.051594608250450    0.987644419212373    0.865920519582811  0.0000
  Si     Si        0.646488997400164    0.298551736826116    0.731039778095567  0.0000
  Si     Si        0.141028661802600    0.297827089208240    0.985230688994183  0.0000
  Si     Si        0.667405428444104    0.712483998248042    0.032551781932709  0.0000
  O1     O1        0.085969595069858    0.203047116276135    0.387665228479002  0.0000
  O1     O1        0.415241061545914    0.745190709912300    0.372007608037010  0.0000
  O1     O1        0.867028701520967    0.067378030305599    0.642838667090508  0.0000
  O1     O1        0.619910904296584    0.831568832057601    0.630324890938038  0.0000
  O1     O1        0.920906929176163    0.733464051683848    0.648030025341245  0.0000
  O3     O3        0.586419921955828    0.190466266862618    0.647516487559718  0.0000
  O1     O1        0.124870287134434    0.852373809860154    0.389657697065782  0.0000
  O1     O1        0.378688090268352    0.095565122253140    0.378471511071178  0.0000
  O1     O1        0.975725295511563    0.960995182839918    0.465593950713394  0.0000
  O1     O1        0.528937629368825    0.986809892303555    0.446947979647913  0.0000
  O1     O1        0.025363184734053    0.979722225114707    0.210101024330049  0.0000
  O1     O1        0.473671642610643    0.957388964273092    0.192157220214453  0.0000
  O3     O3        0.023578312700238    0.000385755749841    0.717574001655288  0.0000
  O1     O1        0.468483905081327    0.949886823319122    0.685136820447368  0.0000
  O1     O1        0.580563757680339    0.202434714247687    0.122153072042072  0.0000
  O1     O1        0.906237865135801    0.760422981403637    0.136515268937257  0.0000
  O1     O1        0.357527244161492    0.066420188741539    0.868386804129941  0.0000
  O3     O3        0.114864043022457    0.837731629876611    0.875482582530689  0.0000
  O1     O1        0.409728689487868    0.732131554551887    0.870716708465999  0.0000
  O2     O2        0.082782441257323    0.173018278439438    0.910013021665645  0.0000
  O3     O3        0.619797791230415    0.851630323714252    0.114052921139969  0.0000
  O1     O1        0.879852923962803    0.105923105320450    0.138284366793204  0.0000
  O1     O1        0.512926319485900    0.997065424370501    0.934757749471595  0.0000
  O3     O3        0.978462111504336    0.945634476139796    0.950637570494450  0.0000
  O1     O1        0.160988343071993    0.511554898921816    0.347871557880423  0.0000
  O1     O1        0.338927848405568    0.435159517593295    0.336657676954542  0.0000
  O1     O1        0.844347598524969    0.422125574320479    0.667471510759608  0.0000
  O3     O3        0.657037491590301    0.484586518522302    0.672492230326929  0.0000
  O1     O1        0.231522274492181    0.190346551390224    0.288602489829136  0.0000
  O1     O1        0.266718638742623    0.749767067793972    0.277711980848007  0.0000
  O3     O3        0.727215686038508    0.197636244664670    0.731487541579827  0.0000
  O1     O1        0.765493390865194    0.732700281768230    0.714075926656764  0.0000
  O3     O3        0.114129050591526    0.324883257345693    0.132978137332288  0.0000
  O1     O1        0.379703294780466    0.615211999528933    0.118747290897543  0.0000
  O1     O1        0.856222661217193    0.221848913676416    0.889439766038454  0.0000
  O3     O3        0.638831087875996    0.718911552553172    0.882897061491109  0.0000
  O1     O1        0.875738856453056    0.614398778248358    0.889577086829678  0.0000
  O3     O3        0.616850548761309    0.319663753850868    0.877463175232542  0.0000
  O1     O1        0.134354546847437    0.722077462074594    0.130226781615479  0.0000
  O1     O1        0.357356355707903    0.208360479840184    0.121494164069235  0.0000
  O3     O3        0.653915452126040    0.525049717256155    0.090654478350079  0.0000
  O1     O1        0.836896064673539    0.445010047669275    0.110738576638093  0.0000
  O1     O1        0.339593344082136    0.418644649758179    0.903051446421084  0.0000
  O3     O3        0.143995282602865    0.482892810878398    0.921465482947738  0.0000
  O1     O1        0.730125486110767    0.205662332847993    0.051733852058327  0.0000
  O3     O3        0.756816541715622    0.747627154575296    0.037443941113965  0.0000
  O3     O3        0.223323655928815    0.206065930890736    0.982873064106481  0.0000
  O1     O1        0.257898823993131    0.722805254002512    0.959546590169574  0.0000
