data_c00306.vasp
_audit_creation_method             Generated by GULP
_audit_author_name                 Salvador R. G. Balestra
_symmetry_space_group_name_H-M     'P 1             '
_symmetry_Int_Tables_number        1

loop_
_symmetry_equiv_pos_site_id
_symmetry_equiv_pos_as_xyz
_cell_length_a                       17.6298
_cell_length_b                        7.8502
_cell_length_c                       10.3074
_cell_angle_alpha                   88.9838
_cell_angle_beta                    91.3180
_cell_angle_gamma                   88.2936

loop_
_atom_site_label
_atom_site_type_symbol
_atom_site_fract_x
_atom_site_fract_y
_atom_site_fract_z
_atom_site_charge
  Ge     Ge        0.052090000000021    0.000000000000000    0.372269999999958  0.0000
  Ge     Ge        0.445079283080132    0.961293158099499    0.388028053793786  0.0000
  Ge     Ge        0.946173372945959    0.951568256914788    0.624198001350120  0.0000
  Ge     Ge        0.544524272641573    0.015054208019399    0.648145874252092  0.0000
  Ge     Ge        0.553836316226852    0.002726116376374    0.148438612733200  0.0000
  Ge     Ge        0.947365130292908    0.939698433387347    0.114050161412782  0.0000
  Ge     Ge        0.441459449597388    0.958979683906078    0.901351031012898  0.0000
  Ge     Ge        0.148222961219661    0.313540931668784    0.294326793817179  0.0000
  Ge     Ge        0.353354430077695    0.644521549816307    0.277146716118560  0.0000
  Ge     Ge        0.823227317772980    0.239792098666858    0.727133263729665  0.0000
  Ge     Ge        0.668836072741925    0.727656796818003    0.726303061165465  0.0000
  Ge     Ge        0.849221103091010    0.641271316163368    0.733613818499979  0.0000
  Ge     Ge        0.644451264279382    0.323853620075001    0.719601565068253  0.0000
  Ge     Ge        0.172471626098554    0.711760649297951    0.294797081897681  0.0000
  Ge     Ge        0.850219710843860    0.625007354713574    0.049837294812677  0.0000
  Ge     Ge        0.319246530066162    0.252565591050140    0.967072904376777  0.0000
  Ge     Ge        0.338520561260019    0.651588259145023    0.962155710284293  0.0000
  Ge     Ge        0.137269929776278    0.314654983622686    0.982630618582270  0.0000
  Ge     Ge        0.668913043752825    0.706402055607067    0.039880808987195  0.0000
  Ge     Ge        0.822516860177773    0.228193345235610    0.043452024968557  0.0000
  Si     Si        0.047425111542733    0.004118588533883    0.871809969068958  0.0000
  Si     Si        0.327240271137821    0.250547636273508    0.274119895991116  0.0000
  Si     Si        0.645540860104859    0.310342134504339    0.029843293115677  0.0000
  Si     Si        0.160071044579251    0.711748254692376    0.985194777411403  0.0000
  O1     O1        0.092119144560136    0.194653977496251    0.391708128706971  0.0000
  O1     O1        0.420318090091784    0.754625720404617    0.361033684261835  0.0000
  O1     O1        0.872899369550624    0.096885614473464    0.636665775090863  0.0000
  O1     O1        0.618861093759723    0.870973397927347    0.628760410115991  0.0000
  O1     O1        0.915837871996860    0.749553597563771    0.649729354830518  0.0000
  O1     O1        0.577106534574182    0.218561245690505    0.633141418397082  0.0000
  O1     O1        0.124776207358462    0.850058426726741    0.390534688451325  0.0000
  O3     O3        0.369396981604005    0.101042836444711    0.356494886346272  0.0000
  O1     O1        0.976736819276851    0.965669039074790    0.466905080280538  0.0000
  O1     O1        0.468295338904549    0.978831132880469    0.550300457988483  0.0000
  O1     O1        0.021451621931034    0.985553572763730    0.212048826470866  0.0000
  O1     O1        0.525126748199814    0.012611164870435    0.306566699957082  0.0000
  O3     O3        0.024857580530244    0.994276814101017    0.720866540542564  0.0000
  O1     O1        0.517102839910265    0.990024633228934    0.807242165459320  0.0000
  O3     O3        0.583899864284085    0.203454198166910    0.104617636981181  0.0000
  O1     O1        0.915816041860882    0.736484803761418    0.136265859168350  0.0000
  O1     O1        0.370544850032071    0.113360291896245    0.878438908595596  0.0000
  O2     O2        0.113703985110935    0.863458464664673    0.908594538136370  0.0000
  O1     O1        0.396719153114213    0.770915418231902    0.870551800784524  0.0000
  O3     O3        0.073238278452966    0.195929374179560    0.896168501075354  0.0000
  O1     O1        0.622917881082915    0.845207214896767    0.138947609608070  0.0000
  O1     O1        0.869528083312263    0.075113801150108    0.134525084231135  0.0000
  O1     O1        0.474108538202658    0.954981878452616    0.060116151509585  0.0000
  O3     O3        0.973270502448087    0.963440429942014    0.952580429510621  0.0000
  O1     O1        0.156592502644210    0.510525146618142    0.356275121471151  0.0000
  O3     O3        0.345084397518216    0.435259874210714    0.332340829236093  0.0000
  O1     O1        0.835923063030492    0.444505135675735    0.669382089005011  0.0000
  O1     O1        0.654784208361400    0.526951647570961    0.664626448945748  0.0000
  O3     O3        0.237692335995962    0.219820437835707    0.275203332732650  0.0000
  O1     O1        0.267085246674917    0.748696746514380    0.296492666502371  0.0000
  O1     O1        0.727704070122914    0.204608685664714    0.714896233812717  0.0000
  O1     O1        0.764678162206244    0.759067577808831    0.729052985390370  0.0000
  O1     O1        0.108857854254434    0.318079525291448    0.139595250874309  0.0000
  O1     O1        0.376375572608645    0.642628921726212    0.117611675646796  0.0000
  O1     O1        0.852910567832327    0.222348954682422    0.886330916887957  0.0000
  O1     O1        0.636564077958266    0.739707654565753    0.882989410385122  0.0000
  O1     O1        0.878640651938148    0.611036114789941    0.891764304256184  0.0000
  O3     O3        0.618961312845089    0.338833959229488    0.881029566209504  0.0000
  O3     O3        0.137368657404058    0.713444635048468    0.135335926206000  0.0000
  O3     O3        0.354507649692917    0.247024900911166    0.126165396848827  0.0000
  O3     O3        0.655456271162440    0.495935555335472    0.090166555985621  0.0000
  O1     O1        0.841337946382214    0.423171214522908    0.110025225848892  0.0000
  O1     O1        0.331436012697352    0.453117968400413    0.901785916972478  0.0000
  O3     O3        0.141889416077000    0.526245729118433    0.928583020868817  0.0000
  O3     O3        0.725176370056033    0.203008602252368    0.038405227455409  0.0000
  O1     O1        0.764540738785291    0.736890138771245    0.047895354241940  0.0000
  O1     O1        0.224331171289990    0.215990703117883    0.965710965502179  0.0000
  O3     O3        0.248593475433790    0.746877933238678    0.973963756861284  0.0000
