data_c00309.vasp
_audit_creation_method             Generated by GULP
_audit_author_name                 Salvador R. G. Balestra
_symmetry_space_group_name_H-M     'P 1             '
_symmetry_Int_Tables_number        1

loop_
_symmetry_equiv_pos_site_id
_symmetry_equiv_pos_as_xyz
_cell_length_a                       17.5848
_cell_length_b                        7.8652
_cell_length_c                       10.2501
_cell_angle_alpha                   90.8147
_cell_angle_beta                    89.8730
_cell_angle_gamma                   87.8714

loop_
_atom_site_label
_atom_site_type_symbol
_atom_site_fract_x
_atom_site_fract_y
_atom_site_fract_z
_atom_site_charge
  Ge     Ge        0.052090000000021    0.000000000000000    0.372269999999958  0.0000
  Ge     Ge        0.449671004407445    0.943978989548498    0.365839395826979  0.0000
  Ge     Ge        0.951705478968514    0.933610601911853    0.631190652986365  0.0000
  Ge     Ge        0.553421100794905    0.994723680732612    0.618391924665787  0.0000
  Ge     Ge        0.550041273004235    0.007325908693045    0.107394624605565  0.0000
  Ge     Ge        0.945376215572132    0.962721722402939    0.115383903434153  0.0000
  Ge     Ge        0.441763681270767    0.945868644457972    0.859812453115088  0.0000
  Ge     Ge        0.145276095763654    0.315077345210487    0.298348411255383  0.0000
  Ge     Ge        0.348470468995979    0.633734247148582    0.302086877568308  0.0000
  Ge     Ge        0.827201007723491    0.228761390827599    0.744789545268940  0.0000
  Ge     Ge        0.675194152963175    0.705512620205425    0.734357846191803  0.0000
  Ge     Ge        0.857816984229575    0.626513050253263    0.736755880592884  0.0000
  Ge     Ge        0.645546388590669    0.305679036599719    0.737865162867460  0.0000
  Ge     Ge        0.327674878006447    0.234191785872490    0.291983756319516  0.0000
  Ge     Ge        0.647140547915431    0.322909172975067    0.055728029547750  0.0000
  Ge     Ge        0.849511233712579    0.642921499699912    0.050919314802633  0.0000
  Ge     Ge        0.323342255339137    0.236586642043090    0.977294956502445  0.0000
  Ge     Ge        0.168079244922039    0.715494744831171    0.989696997356529  0.0000
  Ge     Ge        0.350284984697772    0.636548400994651    0.982275379419113  0.0000
  Ge     Ge        0.138836377357321    0.315890124959161    0.986154364079502  0.0000
  Si     Si        0.052221629660498    0.005277665512355    0.873438146186701  0.0000
  Si     Si        0.170905950651114    0.707174058648079    0.301539281216570  0.0000
  Si     Si        0.669307003015447    0.712983401262156    0.042728502306456  0.0000
  Si     Si        0.826209636227290    0.255272111514508    0.057109400424021  0.0000
  O1     O1        0.088665325835942    0.197591584231378    0.396213007387636  0.0000
  O1     O1        0.411956057156100    0.748293223081137    0.389468893068600  0.0000
  O1     O1        0.874761548900264    0.065444451215311    0.667021687920779  0.0000
  O1     O1        0.629548800024636    0.858014928697043    0.644519522856781  0.0000
  O1     O1        0.924715566736382    0.728516563214353    0.647709792059755  0.0000
  O1     O1        0.578843264624946    0.199146444807825    0.650881729937460  0.0000
  O3     O3        0.123711308664102    0.843364222592028    0.389265421506254  0.0000
  O1     O1        0.376594686021849    0.093382652975256    0.388100136594260  0.0000
  O1     O1        0.977351029049254    0.963705920713605    0.471461507626493  0.0000
  O1     O1        0.528257929125893    0.979753088903713    0.456039768535033  0.0000
  O1     O1        0.020747960255729    0.995696501599020    0.212740909649785  0.0000
  O1     O1        0.476081314453003    0.957553418852451    0.203467835861479  0.0000
  O3     O3        0.031327173461370    0.981395848121863    0.722224389722773  0.0000
  O1     O1        0.472708781431955    0.941904728897057    0.700713057942559  0.0000
  O1     O1        0.586530462395578    0.203805941378997    0.143540033229432  0.0000
  O1     O1        0.905764299879873    0.769386676963563    0.143059197370450  0.0000
  O1     O1        0.364108260878556    0.082606243549980    0.878092056986572  0.0000
  O3     O3        0.122890217104935    0.880770906741320    0.910849420713117  0.0000
  O1     O1        0.417420072502369    0.743343489532791    0.899547098508250  0.0000
  O3     O3        0.074670488111448    0.199693921070993    0.897430177403945  0.0000
  O3     O3        0.625214916206483    0.858890685032348    0.124406222772346  0.0000
  O3     O3        0.873495062279968    0.117190248002415    0.139229636476115  0.0000
  O1     O1        0.517775568759436    0.012141344804262    0.949354980277366  0.0000
  O3     O3        0.977285968679575    0.961074621555998    0.954671909980603  0.0000
  O3     O3        0.158418744474976    0.518753416973104    0.357373522516450  0.0000
  O1     O1        0.342110130775236    0.433476334158927    0.359029485392319  0.0000
  O1     O1        0.848004703589537    0.422738730912232    0.679702386459375  0.0000
  O1     O1        0.656740450310793    0.504752972981768    0.676300649455345  0.0000
  O1     O1        0.231787341163169    0.205943121196284    0.287866051261789  0.0000
  O3     O3        0.260132029642731    0.742355737548636    0.303774353553939  0.0000
  O1     O1        0.732061840805550    0.195344185647097    0.732140370964453  0.0000
  O1     O1        0.770707895124027    0.734301252613478    0.728625056487890  0.0000
  O1     O1        0.107202453559980    0.327230704991190    0.144554868782857  0.0000
  O1     O1        0.377316093061676    0.618440968272470    0.142043384598511  0.0000
  O3     O3        0.853468882108148    0.245608076200450    0.907009833999016  0.0000
  O3     O3        0.640309155026030    0.716129402266911    0.893297609185909  0.0000
  O1     O1        0.886653008093558    0.629368777872927    0.896687430427759  0.0000
  O1     O1        0.616610221187570    0.320262284174753    0.897382271193313  0.0000
  O3     O3        0.141456314485892    0.714136738746509    0.152573182546997  0.0000
  O1     O1        0.359893150196191    0.219146851251667    0.132671277885191  0.0000
  O3     O3        0.651750288181993    0.531728534499210    0.107448885444764  0.0000
  O3     O3        0.842535796425376    0.442600044760305    0.115123502779704  0.0000
  O1     O1        0.341135415909901    0.435584962804179    0.918787652711057  0.0000
  O1     O1        0.145254608940682    0.519069599097771    0.927519882786553  0.0000
  O3     O3        0.736916549526041    0.224485009605168    0.062978704483504  0.0000
  O3     O3        0.759232664852863    0.738012395624956    0.040126538214790  0.0000
  O1     O1        0.226874575239079    0.215230077254178    0.982916508805764  0.0000
  O1     O1        0.263294006125688    0.744943985632672    0.975277321274614  0.0000
