data_c00385.vasp
_audit_creation_method             Generated by GULP
_audit_author_name                 Salvador R. G. Balestra
_symmetry_space_group_name_H-M     'P 1             '
_symmetry_Int_Tables_number        1

loop_
_symmetry_equiv_pos_site_id
_symmetry_equiv_pos_as_xyz
_cell_length_a                       17.6741
_cell_length_b                        7.8273
_cell_length_c                       10.2330
_cell_angle_alpha                   90.4560
_cell_angle_beta                    90.9156
_cell_angle_gamma                   91.2601

loop_
_atom_site_label
_atom_site_type_symbol
_atom_site_fract_x
_atom_site_fract_y
_atom_site_fract_z
_atom_site_charge
  Ge     Ge        0.052090000000021    0.000000000000000    0.372269999999958  0.0000
  Ge     Ge        0.444064290159947    0.061145442435040    0.409202740644650  0.0000
  Ge     Ge        0.944181495298574    0.037338349266918    0.626700295079418  0.0000
  Ge     Ge        0.548345900367595    0.999732489767258    0.664562443089715  0.0000
  Ge     Ge        0.547021101615418    0.997494209029975    0.160669878596007  0.0000
  Ge     Ge        0.945909666289174    0.056702603158884    0.117425244488424  0.0000
  Ge     Ge        0.439956975891190    0.061345302421293    0.910885985502480  0.0000
  Ge     Ge        0.167810523139947    0.294636963651266    0.295350242046345  0.0000
  Ge     Ge        0.322130433856762    0.772187036125780    0.296053062209275  0.0000
  Ge     Ge        0.847833852199528    0.354786291651773    0.734983543514626  0.0000
  Ge     Ge        0.641332444709648    0.675818430340568    0.727651567925853  0.0000
  Ge     Ge        0.822573321066927    0.753721279734173    0.731303105613553  0.0000
  Ge     Ge        0.348336692055160    0.370550496602495    0.289555387270174  0.0000
  Ge     Ge        0.669638617329349    0.282046346113271    0.043469570143435  0.0000
  Ge     Ge        0.820195402314934    0.769854692962901    0.047875420850034  0.0000
  Ge     Ge        0.340186002689082    0.375316205705296    0.968906286270643  0.0000
  Ge     Ge        0.316932527277493    0.774536512913450    0.977226312573370  0.0000
  Ge     Ge        0.158022062821459    0.303861228277277    0.980016556563761  0.0000
  Ge     Ge        0.640081150827728    0.686531374507630    0.042795061426250  0.0000
  Ge     Ge        0.847203675283065    0.369274761510643    0.054859002614148  0.0000
  Si     Si        0.047084410829172    0.004436811793342    0.874240457735916  0.0000
  Si     Si        0.670343110733361    0.282226374900800    0.731464798840230  0.0000
  Si     Si        0.147575856801879    0.692155967819489    0.298630936463553  0.0000
  Si     Si        0.140244632734394    0.702629730382523    0.992110410726109  0.0000
  O1     O1        0.120517348712384    0.157515776384542    0.396305832630121  0.0000
  O1     O1        0.367485694090675    0.924878068990167    0.388585633668474  0.0000
  O1     O1        0.914409177073213    0.240929207580699    0.655361613694921  0.0000
  O1     O1        0.579799661144319    0.796597066004240    0.636939428929796  0.0000
  O1     O1        0.867994801048390    0.901618060906583    0.637183667221747  0.0000
  O3     O3        0.624044461179017    0.142752534200382    0.645935483555388  0.0000
  O3     O3        0.088195298298119    0.795501795674466    0.382657825021159  0.0000
  O1     O1        0.417333162166186    0.264484707900730    0.372528519756881  0.0000
  O1     O1        0.976482685068218    0.025702550028521    0.469339316514489  0.0000
  O1     O1        0.472307378302292    0.052308791464733    0.570842496351264  0.0000
  O1     O1        0.022024877445971    0.017484675465951    0.212212164476112  0.0000
  O1     O1        0.521442261699693    0.003116522184615    0.321975063062239  0.0000
  O3     O3        0.020832215754516    0.981005327030941    0.724354855771296  0.0000
  O1     O1        0.517295703646210    0.012023663758094    0.823945275349535  0.0000
  O1     O1        0.622169730478591    0.134221151429737    0.133024120569426  0.0000
  O1     O1        0.871531181441215    0.915239095229037    0.139440200447881  0.0000
  O1     O1        0.404024881233737    0.260417349984960    0.882553605595074  0.0000
  O2     O2        0.077353003830694    0.822531944508232    0.927107269437231  0.0000
  O1     O1        0.364002500268232    0.921392513409773    0.886471645491121  0.0000
  O3     O3        0.109446586248737    0.157037014993080    0.882266299816338  0.0000
  O1     O1        0.573134099952206    0.791414386037092    0.128930602339681  0.0000
  O1     O1        0.912955124975025    0.259630657923041    0.142425662671545  0.0000
  O1     O1        0.468461261316298    0.054918679096306    0.073110206859470  0.0000
  O3     O3        0.973287005848677    0.051622168740356    0.954231648492995  0.0000
  O3     O3        0.157394301573893    0.503570738642521    0.352738021323749  0.0000
  O1     O1        0.341096986751107    0.572229192616813    0.354187254281891  0.0000
  O1     O1        0.839541299264027    0.553592413026285    0.668817660266298  0.0000
  O3     O3        0.653738372804129    0.469528734474062    0.672224750121063  0.0000
  O1     O1        0.262989932570311    0.259098035822479    0.296595034150568  0.0000
  O3     O3        0.225568431972700    0.801859225980816    0.302911485352245  0.0000
  O3     O3        0.759587766331372    0.249339066193768    0.729328874044705  0.0000
  O1     O1        0.726867763234755    0.783428306228957    0.729591020462352  0.0000
  O1     O1        0.131839887819183    0.273388876244484    0.138504723506198  0.0000
  O1     O1        0.349785951575602    0.789177522335561    0.136295422509654  0.0000
  O1     O1        0.874121329036137    0.386733933726521    0.894555305975975  0.0000
  O1     O1        0.608195679118856    0.669685287564868    0.883861152542021  0.0000
  O1     O1        0.853243884249486    0.775833452275604    0.890743153489966  0.0000
  O3     O3        0.641061206310149    0.275353119606044    0.880159361429335  0.0000
  O2     O2        0.122359249722271    0.673375189278630    0.145235328481333  0.0000
  O1     O1        0.371199621390611    0.392912589258216    0.128735947308171  0.0000
  O1     O1        0.652869626575037    0.484921702072447    0.101818942789239  0.0000
  O1     O1        0.833455310650029    0.569520230144149    0.114066321442784  0.0000
  O1     O1        0.332914005620984    0.576973011261103    0.909656007266457  0.0000
  O3     O3        0.140860543979576    0.513777368437903    0.930052718075193  0.0000
  O1     O1        0.764370349730129    0.247671379463168    0.054408902940266  0.0000
  O1     O1        0.724542320295825    0.802177641240169    0.047565760795584  0.0000
  O1     O1        0.252940157997372    0.272026938577233    0.967147014776494  0.0000
  O3     O3        0.219941870025023    0.801337618286562    0.976742212881764  0.0000
