data_c00378.vasp
_audit_creation_method             Generated by GULP
_audit_author_name                 Salvador R. G. Balestra
_symmetry_space_group_name_H-M     'P 1             '
_symmetry_Int_Tables_number        1

loop_
_symmetry_equiv_pos_site_id
_symmetry_equiv_pos_as_xyz
_cell_length_a                       17.8108
_cell_length_b                        7.7997
_cell_length_c                       10.4709
_cell_angle_alpha                   90.4540
_cell_angle_beta                    90.7626
_cell_angle_gamma                   89.8882

loop_
_atom_site_label
_atom_site_type_symbol
_atom_site_fract_x
_atom_site_fract_y
_atom_site_fract_z
_atom_site_charge
  Ge     Ge        0.052090000000021    0.000000000000000    0.372269999999958  0.0000
  Ge     Ge        0.445217038561988    0.038549759301670    0.327994601988589  0.0000
  Ge     Ge        0.946815779246312    0.001465367391397    0.623227606686710  0.0000
  Ge     Ge        0.546218467522375    0.041566941919318    0.589710278704296  0.0000
  Ge     Ge        0.546617348094238    0.030039494041139    0.073774098962745  0.0000
  Ge     Ge        0.945840703525528    0.000030706304635    0.118719433617225  0.0000
  Ge     Ge        0.435748461861552    0.026923750342539    0.830966261742947  0.0000
  Ge     Ge        0.172265427530642    0.279949372914842    0.259835673941659  0.0000
  Ge     Ge        0.327283444635529    0.750919349823485    0.253119990595144  0.0000
  Ge     Ge        0.823078199887982    0.282557561549302    0.693898775285068  0.0000
  Ge     Ge        0.665654598510328    0.748145089472138    0.698943479965133  0.0000
  Ge     Ge        0.844591302510312    0.688845979897433    0.692668894656854  0.0000
  Ge     Ge        0.147690568105745    0.686800157334161    0.261490292633672  0.0000
  Ge     Ge        0.646182121777873    0.347269478234213    0.003832416028921  0.0000
  Ge     Ge        0.849833529824313    0.686169375076404    0.006977419908734  0.0000
  Ge     Ge        0.141491794170567    0.687121998131436    0.950742259853488  0.0000
  Ge     Ge        0.322919992996003    0.740440969424603    0.945990129201122  0.0000
  Ge     Ge        0.165294734655991    0.280815458866107    0.946222937784806  0.0000
  Ge     Ge        0.671700256976665    0.755579506901675    0.009886324993006  0.0000
  Ge     Ge        0.823686472044350    0.277015539776475    0.004402918682657  0.0000
  Si     Si        0.047609802771669    0.003718693288757    0.875522374384411  0.0000
  Si     Si        0.647961647832271    0.344770121855539    0.699244805617125  0.0000
  Si     Si        0.344977398515898    0.347130823707730    0.251347680333589  0.0000
  Si     Si        0.340529099976728    0.337440007405901    0.949159496416930  0.0000
  O1     O1        0.126785447857845    0.134415299863204    0.349976734478889  0.0000
  O1     O1        0.377713171770538    0.884446345679848    0.352030541620525  0.0000
  O1     O1        0.873330961336570    0.142832317962815    0.602514639852134  0.0000
  O1     O1        0.608629793872310    0.875975352367165    0.608390311817324  0.0000
  O1     O1        0.909095388664638    0.800821578049469    0.606360921148184  0.0000
  O3     O3        0.587767202705439    0.238506917738579    0.616956354082938  0.0000
  O1     O1        0.084037013249330    0.794545462365445    0.352912794011819  0.0000
  O3     O3        0.408206450517363    0.245153555538663    0.328209196279035  0.0000
  O1     O1        0.020120961855645    0.032619663691523    0.524411646245707  0.0000
  O1     O1        0.518780811209909    0.032355618332413    0.431618989130868  0.0000
  O1     O1        0.977528486935598    0.037048065143390    0.271187118609864  0.0000
  O1     O1        0.476412241577282    0.993795397290045    0.176786147240259  0.0000
  O3     O3        0.979560644632027    0.033166040788760    0.778947869197881  0.0000
  O1     O1        0.465071888921481    0.027634544170885    0.675592535449510  0.0000
  O1     O1        0.579282577513982    0.237422995617921    0.084064190061348  0.0000
  O1     O1        0.917100146876474    0.792110953114900    0.094759908152208  0.0000
  O3     O3        0.402775736359101    0.227935237700175    0.877930685581364  0.0000
  O3     O3        0.078479583807875    0.810058853309435    0.863387411369165  0.0000
  O1     O1        0.368008904427223    0.872223927762338    0.842920264614012  0.0000
  O3     O3        0.116808117000449    0.133464848828668    0.854168606869919  0.0000
  O1     O1        0.621805821784274    0.894811511683810    0.101155569907864  0.0000
  O1     O1        0.870469358802352    0.132932073623440    0.096781746407410  0.0000
  O1     O1        0.513571553695270    0.984167812248469    0.921797978738567  0.0000
  O3     O3        0.019316060903266    0.044826687142037    0.018238322676290  0.0000
  O1     O1        0.156640876779598    0.483294304776263    0.318141009616381  0.0000
  O3     O3        0.338132379904958    0.539154125384563    0.302932220260367  0.0000
  O1     O1        0.836982026367141    0.484787838309339    0.634711285673678  0.0000
  O3     O3        0.658162842723008    0.535512627426556    0.646785315772877  0.0000
  O3     O3        0.267921314538512    0.241810633358461    0.265742928471674  0.0000
  O1     O1        0.232823705806235    0.791547631861079    0.260630343463805  0.0000
  O3     O3        0.727217082239784    0.243431375903827    0.694357796264959  0.0000
  O1     O1        0.759478415351390    0.795187190030387    0.686774717905901  0.0000
  O1     O1        0.141633452606204    0.270473060059448    0.104065337759288  0.0000
  O1     O1        0.356672610108353    0.773469048186605    0.098285453216174  0.0000
  O1     O1        0.853878874254903    0.268112666196503    0.849493614719098  0.0000
  O1     O1        0.639618879478085    0.768990434852019    0.854268589137066  0.0000
  O1     O1        0.874781522076702    0.680130090065418    0.849282131636084  0.0000
  O3     O3        0.619401719873298    0.357328802618123    0.843864935717723  0.0000
  O1     O1        0.113493928482507    0.682033539084405    0.106835651432528  0.0000
  O2     O2        0.362501309472063    0.355024312493788    0.099574573395893  0.0000
  O1     O1        0.657766836134420    0.548878754584953    0.063240699943357  0.0000
  O1     O1        0.839012722337678    0.482376329208240    0.061922779649628  0.0000
  O3     O3        0.334915945464216    0.528644336108080    0.895518735753954  0.0000
  O1     O1        0.144802811894839    0.482879882821033    0.890691105680455  0.0000
  O1     O1        0.729406737750252    0.235454695208741    0.009901139779540  0.0000
  O1     O1        0.765914219740968    0.796285409744595    0.015579702274467  0.0000
  O3     O3        0.260757291452069    0.242321637127137    0.933420781098556  0.0000
  O1     O1        0.228472144602538    0.781048090478553    0.946342560029945  0.0000
