data_c00356.vasp
_audit_creation_method             Generated by GULP
_audit_author_name                 Salvador R. G. Balestra
_symmetry_space_group_name_H-M     'P 1             '
_symmetry_Int_Tables_number        1

loop_
_symmetry_equiv_pos_site_id
_symmetry_equiv_pos_as_xyz
_cell_length_a                       17.1211
_cell_length_b                        7.8393
_cell_length_c                       10.5241
_cell_angle_alpha                   95.7839
_cell_angle_beta                    88.7800
_cell_angle_gamma                   89.2967

loop_
_atom_site_label
_atom_site_type_symbol
_atom_site_fract_x
_atom_site_fract_y
_atom_site_fract_z
_atom_site_charge
  Ge     Ge        0.052090000000021    0.000000000000000    0.372269999999958  0.0000
  Ge     Ge        0.476758407947281    0.946811062201853    0.371537428856907  0.0000
  Ge     Ge        0.973621065058438    0.908752593507171    0.637988957602901  0.0000
  Ge     Ge        0.566705632930303    0.911142458383023    0.634531432605952  0.0000
  Ge     Ge        0.582071085121878    0.022415518615220    0.109797524180366  0.0000
  Ge     Ge        0.970308224914660    0.022529860623878    0.094063105267450  0.0000
  Ge     Ge        0.462377146004592    0.913667902212680    0.886687790418712  0.0000
  Ge     Ge        0.162688012353508    0.279295073774714    0.275322544428001  0.0000
  Ge     Ge        0.363698415364122    0.629723079713764    0.317875397010536  0.0000
  Ge     Ge        0.858007803929854    0.227015135558502    0.738878614966474  0.0000
  Ge     Ge        0.675049261985872    0.614341927847339    0.710870432687948  0.0000
  Ge     Ge        0.868799648789839    0.605055458425765    0.684565280922006  0.0000
  Ge     Ge        0.188250472664995    0.712875687718264    0.289851550485546  0.0000
  Ge     Ge        0.348776168518387    0.221673656123795    0.301399725468494  0.0000
  Ge     Ge        0.689856421529849    0.326996371361032    0.061171423428009  0.0000
  Ge     Ge        0.867398138194136    0.723364851725890    0.981825612127258  0.0000
  Ge     Ge        0.198980516759958    0.673781125439135    0.978757396304456  0.0000
  Ge     Ge        0.379130255921521    0.588757638187587    0.993462316178992  0.0000
  Ge     Ge        0.167805288026225    0.274267430901735    0.980846925373398  0.0000
  Ge     Ge        0.871733047844824    0.359361641252147    0.049646409752281  0.0000
  Si     Si        0.093841239171768    0.943348397648353    0.857308151141659  0.0000
  Si     Si        0.680350146762247    0.215604024997398    0.756697635633916  0.0000
  Si     Si        0.358637099304696    0.211601905147781    0.002014615320033  0.0000
  Si     Si        0.678312096795036    0.700800496806046    0.998493660195908  0.0000
  O1     O1        0.096056867634129    0.195981927341358    0.373842257293093  0.0000
  O1     O1        0.442315738306402    0.740777383416100    0.374429789406149  0.0000
  O1     O1        0.916507730683148    0.052965070234496    0.737358560771604  0.0000
  O1     O1        0.618932724611094    0.721848063969095    0.610502691256707  0.0000
  O1     O1        0.926085123290843    0.724533463730714    0.589367959500649  0.0000
  O3     O3        0.618962194926970    0.074508308811396    0.712352819243525  0.0000
  O1     O1        0.118748880558444    0.834062149461541    0.376989483899155  0.0000
  O1     O1        0.397956957859588    0.085550326786766    0.389636880096992  0.0000
  O1     O1        0.991239097229674    0.008113179027581    0.502358625944602  0.0000
  O1     O1        0.541844466240241    0.979668842231605    0.491326164550256  0.0000
  O1     O1        0.999254149963555    0.961402682205161    0.235112320015816  0.0000
  O1     O1        0.520312512037560    0.966709052625376    0.226686645944122  0.0000
  O3     O3        0.059848032347797    0.889794834507072    0.718956500887818  0.0000
  O1     O1        0.483931052366062    0.884729254920300    0.727072268383761  0.0000
  O1     O1        0.627450979187530    0.212925152276033    0.149962567138210  0.0000
  O1     O1        0.882256367223387    0.921660135551526    0.055708469012767  0.0000
  O3     O3        0.376433226736534    0.038906540825233    0.912108148354339  0.0000
  O3     O3        0.164332372915144    0.816362108008916    0.878162286147936  0.0000
  O1     O1        0.451290929238786    0.718489952594181    0.947258348161971  0.0000
  O3     O3        0.127447951292789    0.137561337626765    0.862810832075143  0.0000
  O3     O3        0.657388825291167    0.867078858515059    0.090913131666292  0.0000
  O1     O1        0.947655465310895    0.235954118886983    0.095472292056776  0.0000
  O1     O1        0.532314385689959    0.026896736290711    0.971220747342679  0.0000
  O3     O3        0.029500643175147    0.931238934281288    0.969857843375138  0.0000
  O1     O1        0.169850448886442    0.495310835719959    0.286704129746642  0.0000
  O1     O1        0.366805767594724    0.427454644049735    0.365573098204696  0.0000
  O1     O1        0.886635317264293    0.390347653143406    0.649368233417658  0.0000
  O3     O3        0.655490505751503    0.399243043163741    0.712147495738809  0.0000
  O1     O1        0.250681225308816    0.182949655678142    0.304468083393292  0.0000
  O1     O1        0.276953667868771    0.736840678414715    0.361217127264333  0.0000
  O3     O3        0.765182529655366    0.162896279225979    0.693800171086245  0.0000
  O1     O1        0.770420565229796    0.643339997957728    0.668507635575964  0.0000
  O1     O1        0.129632347333701    0.215487255985303    0.122757628938951  0.0000
  O1     O1        0.357594791093790    0.610387508282421    0.153830880288210  0.0000
  O1     O1        0.853529706299160    0.338837870038466    0.887856316335657  0.0000
  O3     O3        0.641011979258525    0.711725432003771    0.859430265433202  0.0000
  O1     O1        0.903721293477405    0.699293687982628    0.827899600759964  0.0000
  O3     O3        0.689207532504184    0.220593999227869    0.908838171678187  0.0000
  O1     O1        0.188830149378629    0.764647334970693    0.134264555173156  0.0000
  O3     O3        0.384795294660816    0.183335385662577    0.144977663295460  0.0000
  O3     O3        0.651221507974465    0.532265436766953    0.063241525341858  0.0000
  O1     O1        0.901159609445133    0.568435909945974    0.074025935763876  0.0000
  O3     O3        0.403987054288845    0.373415285716058    0.953355704378362  0.0000
  O1     O1        0.148671129079032    0.482968139817658    0.957768618111975  0.0000
  O1     O1        0.782566749645109    0.323919561594371    0.121369580050470  0.0000
  O3     O3        0.769630122209540    0.667784068633194    0.963575604646345  0.0000
  O3     O3        0.267459276369514    0.268870549211769    0.007713776073486  0.0000
  O1     O1        0.293576364205497    0.643755267798429    0.924657827396880  0.0000
