data_c00305.vasp
_audit_creation_method             Generated by GULP
_audit_author_name                 Salvador R. G. Balestra
_symmetry_space_group_name_H-M     'P 1             '
_symmetry_Int_Tables_number        1

loop_
_symmetry_equiv_pos_site_id
_symmetry_equiv_pos_as_xyz
_cell_length_a                       17.5642
_cell_length_b                        7.8133
_cell_length_c                       10.3381
_cell_angle_alpha                   89.1485
_cell_angle_beta                    90.9688
_cell_angle_gamma                   88.5644

loop_
_atom_site_label
_atom_site_type_symbol
_atom_site_fract_x
_atom_site_fract_y
_atom_site_fract_z
_atom_site_charge
  Ge     Ge        0.052090000000021    0.000000000000000    0.372269999999958  0.0000
  Ge     Ge        0.443583958971031    0.955665715079575    0.354149853851580  0.0000
  Ge     Ge        0.946428031150881    0.950974425828992    0.622004358201627  0.0000
  Ge     Ge        0.540841736193167    0.005514480569588    0.616091109509595  0.0000
  Ge     Ge        0.553408324471643    0.001634279512374    0.116916565053880  0.0000
  Ge     Ge        0.941550016007627    0.937738790113283    0.124040588165919  0.0000
  Ge     Ge        0.438978540686972    0.954730732673924    0.873696341107041  0.0000
  Ge     Ge        0.145739478405679    0.315720144529053    0.253299321396804  0.0000
  Ge     Ge        0.352354566831348    0.637317076815897    0.241329324249683  0.0000
  Ge     Ge        0.820735377427758    0.231577561801004    0.690762566921121  0.0000
  Ge     Ge        0.667181337754115    0.723427989114840    0.692116745140171  0.0000
  Ge     Ge        0.847673965875491    0.635603663787429    0.692947124703683  0.0000
  Ge     Ge        0.641381244087453    0.317450860570825    0.687415500441318  0.0000
  Ge     Ge        0.171655897748165    0.715516056016574    0.261196737133726  0.0000
  Ge     Ge        0.851161640880239    0.623690067249805    0.008024342311388  0.0000
  Ge     Ge        0.319056314559264    0.254459948750561    0.935072959625449  0.0000
  Ge     Ge        0.159015173467498    0.725067173371011    0.948445893467194  0.0000
  Ge     Ge        0.138029770230351    0.324247644220938    0.936501284295697  0.0000
  Ge     Ge        0.669375496658801    0.707505119649728    0.005047143247168  0.0000
  Ge     Ge        0.820492092460822    0.223310787350568    0.006109442166467  0.0000
  Si     Si        0.040619852591891    0.016405914861231    0.878238747567703  0.0000
  Si     Si        0.323973549367098    0.240930415264059    0.242056314287614  0.0000
  Si     Si        0.643405891975718    0.310374761123533    0.995840735365815  0.0000
  Si     Si        0.337439322080989    0.650822963313951    0.936416378236335  0.0000
  O1     O1        0.080661042992688    0.203433319565992    0.337910142931442  0.0000
  O1     O1        0.421023282251746    0.747268413300493    0.321031193849848  0.0000
  O1     O1        0.872198511851009    0.095682809246828    0.596045946311388  0.0000
  O1     O1        0.616622182659306    0.864794446924655    0.594763296532031  0.0000
  O1     O1        0.912712636952298    0.748384388179379    0.605986522500286  0.0000
  O1     O1        0.572810814939101    0.211368480869484    0.603741337485201  0.0000
  O1     O1        0.128351468823694    0.862740301434094    0.357344415195842  0.0000
  O3     O3        0.367054716332679    0.094102838783479    0.325349368983617  0.0000
  O1     O1        0.023035822706763    0.990984035356631    0.530484241737059  0.0000
  O1     O1        0.465380095439006    0.969156459484510    0.516532023949341  0.0000
  O1     O1        0.973970178729857    0.945962442837402    0.280856083886713  0.0000
  O1     O1        0.524370572861076    0.010994071061867    0.274759116860146  0.0000
  O3     O3        0.971423083931212    0.973219986304453    0.785364848759943  0.0000
  O1     O1        0.513638831745841    0.971127123882527    0.774044991756391  0.0000
  O3     O3        0.581643540618900    0.204822928598466    0.073122244956211  0.0000
  O1     O1        0.918983100918239    0.729830919236370    0.093698706676330  0.0000
  O1     O1        0.374226879735588    0.121976138355958    0.845630108898510  0.0000
  O3     O3        0.110842641199163    0.881765093635770    0.859655916353258  0.0000
  O3     O3        0.391466572023717    0.764240425688413    0.849366225701154  0.0000
  O3     O3        0.070971882502377    0.206859616089248    0.853838693388808  0.0000
  O1     O1        0.623890178237405    0.847214755225877    0.105098485838963  0.0000
  O1     O1        0.861375584726709    0.066022886175691    0.101825512253056  0.0000
  O1     O1        0.473224911340789    0.951531295511811    0.030132650707932  0.0000
  O3     O3        0.014131919522626    0.006997412911990    0.027007345734722  0.0000
  O1     O1        0.155673580205804    0.512535795937456    0.320047344927584  0.0000
  O3     O3        0.342881035787363    0.428279022242084    0.296797517592800  0.0000
  O1     O1        0.833198155957835    0.437590301130342    0.632330629097445  0.0000
  O1     O1        0.653106766633213    0.520634417536600    0.631905406380398  0.0000
  O3     O3        0.233982084665704    0.210473566790198    0.248187795878113  0.0000
  O1     O1        0.267538233946950    0.746475356624056    0.260355789318598  0.0000
  O1     O1        0.724729989435904    0.196805620183510    0.681698430055895  0.0000
  O1     O1        0.763448534631339    0.755261848065757    0.693103376812904  0.0000
  O1     O1        0.114864567328002    0.342884735208567    0.096345431516484  0.0000
  O3     O3        0.374249037214437    0.626904464297445    0.079637665959876  0.0000
  O1     O1        0.851114123238049    0.211568089137152    0.849744087653165  0.0000
  O1     O1        0.636480567656117    0.739210695360423    0.849473227069875  0.0000
  O1     O1        0.878968365810818    0.608788137994224    0.850317282793196  0.0000
  O3     O3        0.615424649223728    0.335826925062096    0.848157520687890  0.0000
  O1     O1        0.132502603021156    0.735307183507317    0.107405608749087  0.0000
  O3     O3        0.350762432720453    0.230804933037432    0.094190530751425  0.0000
  O3     O3        0.655102465974623    0.496521041365343    0.055461401243848  0.0000
  O1     O1        0.841946103850113    0.419870513496662    0.068182364451174  0.0000
  O3     O3        0.326136314531456    0.464526574595868    0.878387738208650  0.0000
  O1     O1        0.140191486311448    0.530642992088225    0.879601480287091  0.0000
  O3     O3        0.722574583791264    0.201169113719444    0.000981506823271  0.0000
  O1     O1        0.765666265043929    0.736296930293804    0.011964680721476  0.0000
  O1     O1        0.223944493195842    0.215262597939883    0.924624848219906  0.0000
  O3     O3        0.256459474233087    0.751344330639367    0.949238438727999  0.0000
