data_c00350.vasp
_audit_creation_method             Generated by GULP
_audit_author_name                 Salvador R. G. Balestra
_symmetry_space_group_name_H-M     'P 1             '
_symmetry_Int_Tables_number        1

loop_
_symmetry_equiv_pos_site_id
_symmetry_equiv_pos_as_xyz
_cell_length_a                       17.7213
_cell_length_b                        7.8048
_cell_length_c                       10.1448
_cell_angle_alpha                   92.2604
_cell_angle_beta                    91.1938
_cell_angle_gamma                   89.5974

loop_
_atom_site_label
_atom_site_type_symbol
_atom_site_fract_x
_atom_site_fract_y
_atom_site_fract_z
_atom_site_charge
  Ge     Ge        0.052090000000021    0.000000000000000    0.372269999999958  0.0000
  Ge     Ge        0.450001959196429    0.962224115401900    0.362004626303229  0.0000
  Ge     Ge        0.943184855575518    0.921344400269374    0.613573946463454  0.0000
  Ge     Ge        0.549455862150912    0.975488195767334    0.624237075625593  0.0000
  Ge     Ge        0.542355003109605    0.009575477550950    0.091777465564961  0.0000
  Ge     Ge        0.951015348202444    0.951117216592078    0.108539043574458  0.0000
  Ge     Ge        0.427877212836971    0.930293607062451    0.842100273620039  0.0000
  Ge     Ge        0.147968917714342    0.309581008281813    0.293263834578491  0.0000
  Ge     Ge        0.350010205146855    0.644158913962117    0.280120331557058  0.0000
  Ge     Ge        0.818877605205779    0.205759410968451    0.721586401796235  0.0000
  Ge     Ge        0.664467440715306    0.677372157000078    0.717751664533621  0.0000
  Ge     Ge        0.848101439025681    0.610300311808817    0.718137695503420  0.0000
  Ge     Ge        0.172169464908683    0.716627393748825    0.291815970132781  0.0000
  Ge     Ge        0.325540311754239    0.232319622152506    0.282164997142225  0.0000
  Ge     Ge        0.652104767822432    0.320757944919034    0.051374163445520  0.0000
  Ge     Ge        0.845421788112666    0.640441764960291    0.037475373144665  0.0000
  Ge     Ge        0.317167575526205    0.228572603753151    0.964780968713968  0.0000
  Ge     Ge        0.160553609946962    0.689396509880041    0.973208697327216  0.0000
  Ge     Ge        0.666815664797309    0.720502531259486    0.034147243709804  0.0000
  Ge     Ge        0.822341828481457    0.230521752172816    0.050122898640815  0.0000
  Si     Si        0.050602540512330    0.977869380235623    0.859459541178648  0.0000
  Si     Si        0.649125003347298    0.289136107727388    0.730270322524025  0.0000
  Si     Si        0.338644584039811    0.627357478709952    0.966284629606148  0.0000
  Si     Si        0.139673352365648    0.293586761773346    0.980327797239159  0.0000
  O1     O1        0.086435350875113    0.205089390888161    0.390025950057244  0.0000
  O1     O1        0.417629835356030    0.755115929671046    0.369513649437647  0.0000
  O1     O1        0.864584784866429    0.044639821463589    0.638231280333463  0.0000
  O1     O1        0.616177239531452    0.818141449149094    0.620317732404499  0.0000
  O1     O1        0.914534883636977    0.714941268373791    0.630251293092355  0.0000
  O3     O3        0.577821750779044    0.168417920024932    0.702109147376404  0.0000
  O1     O1        0.124020835236586    0.854698920015189    0.394812281366558  0.0000
  O1     O1        0.376028415151047    0.104613692072357    0.384118496407424  0.0000
  O1     O1        0.973408213265705    0.955372190749987    0.456642121818976  0.0000
  O1     O1        0.526093208574383    0.008482665297601    0.460287055071909  0.0000
  O1     O1        0.028088852871884    0.981534015996060    0.205650128971861  0.0000
  O1     O1        0.472210191168778    0.985077608326286    0.198550672496697  0.0000
  O3     O3        0.022558972228222    0.979321819069481    0.708342811851982  0.0000
  O1     O1        0.463174419004724    0.921236035248257    0.685411606060935  0.0000
  O1     O1        0.573975571349432    0.219741143476254    0.099391732528497  0.0000
  O1     O1        0.908500680217349    0.757554502012274    0.132044428568276  0.0000
  O1     O1        0.357790610233597    0.082615298478674    0.858401376065395  0.0000
  O3     O3        0.114948466696712    0.833045047492253    0.874215460062616  0.0000
  O3     O3        0.393569081263474    0.730299023057736    0.875681856400390  0.0000
  O2     O2        0.080424481047830    0.168125286065685    0.902624796724548  0.0000
  O1     O1        0.617567521746756    0.875236748689332    0.120734005605784  0.0000
  O1     O1        0.884752164165620    0.110150617831382    0.136740515696802  0.0000
  O1     O1        0.507402676181569    0.977435139029153    0.933989746230493  0.0000
  O3     O3        0.977849223028883    0.938979459866338    0.943838859734571  0.0000
  O1     O1        0.162137347557840    0.513788043675020    0.351523767993987  0.0000
  O1     O1        0.338933122256150    0.443593679900764    0.335093589537838  0.0000
  O1     O1        0.842572386507336    0.400680944236766    0.662222039056043  0.0000
  O3     O3        0.643444573584895    0.468910313205595    0.658405404457420  0.0000
  O1     O1        0.230674144002649    0.192678139912935    0.289173390721940  0.0000
  O1     O1        0.266576196524969    0.759483107923771    0.289433176804168  0.0000
  O3     O3        0.722688331301539    0.178469046448942    0.689925742250387  0.0000
  O1     O1        0.760058458395485    0.705656986591707    0.708958589583964  0.0000
  O3     O3        0.115009546726937    0.322770576305403    0.130684063601223  0.0000
  O3     O3        0.372989696728358    0.626191323692031    0.114127392968264  0.0000
  O1     O1        0.841173890586640    0.192509283584874    0.885885156894882  0.0000
  O1     O1        0.632637547957659    0.724920696047591    0.873441766780781  0.0000
  O1     O1        0.877629626743464    0.610986973792888    0.879714967989016  0.0000
  O3     O3        0.662159041644469    0.353102735004233    0.882572415012468  0.0000
  O1     O1        0.134506698390084    0.721797298228990    0.133075814088866  0.0000
  O1     O1        0.353927945269559    0.205392268036443    0.120178403027660  0.0000
  O1     O1        0.652513712721888    0.528875060904708    0.109844326844859  0.0000
  O1     O1        0.830999680182859    0.444371274536218    0.098929488742219  0.0000
  O3     O3        0.331758981893855    0.433206075642273    0.910002308915322  0.0000
  O3     O3        0.141094685481037    0.479613963586634    0.917572762478059  0.0000
  O1     O1        0.729553674294659    0.194285150508015    0.085717729947579  0.0000
  O1     O1        0.761993532257535    0.756919193122066    0.030827615960719  0.0000
  O3     O3        0.220811016035230    0.201278935377110    0.973724078316423  0.0000
  O3     O3        0.256895103511643    0.719584388421351    0.967826691778028  0.0000
