data_c00377.vasp
_audit_creation_method             Generated by GULP
_audit_author_name                 Salvador R. G. Balestra
_symmetry_space_group_name_H-M     'P 1             '
_symmetry_Int_Tables_number        1

loop_
_symmetry_equiv_pos_site_id
_symmetry_equiv_pos_as_xyz
_cell_length_a                       17.4291
_cell_length_b                        7.7417
_cell_length_c                       10.6257
_cell_angle_alpha                   91.5176
_cell_angle_beta                    91.1193
_cell_angle_gamma                   90.1227

loop_
_atom_site_label
_atom_site_type_symbol
_atom_site_fract_x
_atom_site_fract_y
_atom_site_fract_z
_atom_site_charge
  Ge     Ge        0.052090000000021    0.000000000000000    0.372269999999958  0.0000
  Ge     Ge        0.459240623338603    0.045680181000984    0.354895190907402  0.0000
  Ge     Ge        0.948963579376782    0.952368242280732    0.622457067950331  0.0000
  Ge     Ge        0.548924159736738    0.005402347020083    0.623469568747947  0.0000
  Ge     Ge        0.550600186620535    0.045266065110263    0.087181332886267  0.0000
  Ge     Ge        0.947060418245996    0.010692491254067    0.109048390031541  0.0000
  Ge     Ge        0.433355290245213    0.024315810506333    0.847213222333732  0.0000
  Ge     Ge        0.174380218814744    0.274227656450001    0.278571678164968  0.0000
  Ge     Ge        0.334453587884354    0.758617898199803    0.277769770102570  0.0000
  Ge     Ge        0.821335328580077    0.227762009803729    0.736568596803837  0.0000
  Ge     Ge        0.665570495402701    0.701361300528461    0.689571987827812  0.0000
  Ge     Ge        0.850876829327784    0.642216968578889    0.701460536235796  0.0000
  Ge     Ge        0.154049955724973    0.684321032573021    0.297566365132306  0.0000
  Ge     Ge        0.646129342611262    0.381053307076234    0.032137647412640  0.0000
  Ge     Ge        0.855509688483071    0.683303986990033    0.002558862739336  0.0000
  Ge     Ge        0.349261820715980    0.352792252487399    0.957923811281421  0.0000
  Ge     Ge        0.321111744863179    0.766217154046758    0.977047907696114  0.0000
  Ge     Ge        0.162074370172212    0.294179748052257    0.973350378431406  0.0000
  Ge     Ge        0.670814998331491    0.768860586852055    0.997947272520622  0.0000
  Ge     Ge        0.819792179124543    0.278913500322929    0.036840305906636  0.0000
  Si     Si        0.050359017258145    0.003113279969891    0.875360169462986  0.0000
  Si     Si        0.651313352351323    0.316117676147163    0.730816985518610  0.0000
  Si     Si        0.352676856237435    0.339219780553168    0.254553376483887  0.0000
  Si     Si        0.138733457696116    0.692285574791663    0.998442012278549  0.0000
  O1     O1        0.130954392909931    0.136732551297196    0.377045853159693  0.0000
  O1     O1        0.394385552442698    0.879922453062711    0.374952923409199  0.0000
  O1     O1        0.868282055360810    0.070153649163774    0.654618584133671  0.0000
  O1     O1        0.610636656919600    0.837778705113289    0.599684237535237  0.0000
  O1     O1        0.917070511551143    0.742176582925642    0.609228217686912  0.0000
  O3     O3        0.584375631699697    0.175225228892786    0.720236260136786  0.0000
  O1     O1        0.087388934247417    0.794153198656867    0.383983880375145  0.0000
  O3     O3        0.414089115881362    0.243046470177914    0.340933001805803  0.0000
  O1     O1        0.985546259117375    0.029186033744215    0.485620790762644  0.0000
  O1     O1        0.522069276331597    0.074831695144993    0.478656688771335  0.0000
  O1     O1        0.012730544645882    0.042153567071610    0.227014574140562  0.0000
  O1     O1        0.512825713729050    0.992607924617815    0.226482367464617  0.0000
  O3     O3        0.022701702562379    0.973723641400103    0.732993318035248  0.0000
  O1     O1        0.467315063580548    0.957660388937611    0.704815455634637  0.0000
  O1     O1        0.568539064652216    0.263137121337005    0.072967700934328  0.0000
  O1     O1        0.916974494764613    0.799628695987887    0.099103336648943  0.0000
  O1     O1        0.410667725848912    0.240326049720303    0.862416728590920  0.0000
  O2     O2        0.077862395948608    0.819874475326629    0.933073656691179  0.0000
  O1     O1        0.348622045733073    0.916230789165143    0.874442909762821  0.0000
  O3     O3        0.117601066752905    0.144234628968272    0.874116006878835  0.0000
  O1     O1        0.640186344424603    0.953778724781807    0.070483830145168  0.0000
  O1     O1        0.869840454381142    0.144149375189315    0.133438765586961  0.0000
  O1     O1        0.496159572223961    0.961900143245668    0.964102143568056  0.0000
  O3     O3        0.983521591767036    0.072967775448810    0.964354364699748  0.0000
  O1     O1        0.162871030715701    0.478028032731860    0.345109268825429  0.0000
  O3     O3        0.342103601500989    0.536816632440411    0.297871726742824  0.0000
  O1     O1        0.865152215871648    0.424712805766973    0.714384491645030  0.0000
  O3     O3        0.625661205967126    0.495417827518108    0.669819608632832  0.0000
  O3     O3        0.272126634049961    0.237715651948598    0.263315879498333  0.0000
  O1     O1        0.239403176699014    0.797367973681322    0.305630857085207  0.0000
  O3     O3        0.728360931325473    0.238660354566400    0.670804908783400  0.0000
  O1     O1        0.759026735743853    0.681610426760082    0.645738606714616  0.0000
  O1     O1        0.138322802753485    0.260861916762055    0.126374368472120  0.0000
  O1     O1        0.358063337465949    0.806406150512882    0.126627747909630  0.0000
  O1     O1        0.815140793537046    0.173658255368882    0.890904394393923  0.0000
  O1     O1        0.660124086093033    0.792332075545044    0.837845846754409  0.0000
  O1     O1        0.864025641844489    0.740260263852617    0.848068271361406  0.0000
  O3     O3        0.675233938962519    0.369856353909111    0.874615960422341  0.0000
  O3     O3        0.118126117206402    0.675374169878379    0.143415547935736  0.0000
  O3     O3        0.382136274586687    0.324629176342419    0.111964085534392  0.0000
  O1     O1        0.620364234963601    0.592588135799578    0.050688663102917  0.0000
  O1     O1        0.870777174606934    0.467114144661231    0.018224357957251  0.0000
  O1     O1        0.349682658754368    0.565633448947656    0.922207007365821  0.0000
  O3     O3        0.136864643923841    0.503916892116109    0.932249396175136  0.0000
  O1     O1        0.731628201715463    0.320973944217488    0.101784269296020  0.0000
  O1     O1        0.762705595194311    0.725678264314524    0.044394753101026  0.0000
  O1     O1        0.257925210870983    0.271334358542409    0.949038203589453  0.0000
  O3     O3        0.223144391793287    0.773639788259312    0.993591937867606  0.0000
