data_c00312.vasp
_audit_creation_method             Generated by GULP
_audit_author_name                 Salvador R. G. Balestra
_symmetry_space_group_name_H-M     'P 1             '
_symmetry_Int_Tables_number        1

loop_
_symmetry_equiv_pos_site_id
_symmetry_equiv_pos_as_xyz
_cell_length_a                       17.5967
_cell_length_b                        7.8175
_cell_length_c                       10.3325
_cell_angle_alpha                   90.1081
_cell_angle_beta                    90.0464
_cell_angle_gamma                   91.3041

loop_
_atom_site_label
_atom_site_type_symbol
_atom_site_fract_x
_atom_site_fract_y
_atom_site_fract_z
_atom_site_charge
  Ge     Ge        0.052090000000021    0.000000000000000    0.372269999999958  0.0000
  Ge     Ge        0.445004441523378    0.049427893976610    0.336724717463198  0.0000
  Ge     Ge        0.949958232378724    0.033666016113551    0.629750005359907  0.0000
  Ge     Ge        0.546997114431137    0.979239520607300    0.589704832186014  0.0000
  Ge     Ge        0.546238770252585    0.973064072856744    0.082032614565503  0.0000
  Ge     Ge        0.941327327383948    0.036380714623519    0.127635673083577  0.0000
  Ge     Ge        0.438590473506385    0.034481017752695    0.834266965025414  0.0000
  Ge     Ge        0.167595456409745    0.296184669381867    0.267240350095645  0.0000
  Ge     Ge        0.320503610231471    0.768250874258176    0.257057505920793  0.0000
  Ge     Ge        0.850662844710805    0.347539348092709    0.699647209689838  0.0000
  Ge     Ge        0.643648358228824    0.668944299572191    0.705954411567561  0.0000
  Ge     Ge        0.824171127266944    0.752911429298317    0.705131643432610  0.0000
  Ge     Ge        0.671260753441710    0.265256439472098    0.699524640415237  0.0000
  Ge     Ge        0.350399831204576    0.366418008999477    0.267196666404210  0.0000
  Ge     Ge        0.671594420292897    0.258141788492654    0.013941245382376  0.0000
  Ge     Ge        0.824867575545727    0.739567406706117    0.018375167542089  0.0000
  Ge     Ge        0.346208946670694    0.350114368338801    0.955740044269186  0.0000
  Ge     Ge        0.145533333948112    0.676903969352293    0.946110143028940  0.0000
  Ge     Ge        0.163043859337767    0.275357583592529    0.956365226041981  0.0000
  Ge     Ge        0.644356383008821    0.657549696560769    0.022443684740609  0.0000
  Si     Si        0.046809939319449    0.983743713443900    0.884794604977768  0.0000
  Si     Si        0.144335497948142    0.690139521490782    0.254637444767702  0.0000
  Si     Si        0.322117896840483    0.750134185820771    0.949203451874036  0.0000
  Si     Si        0.848261110332812    0.341239506440696    0.007934917634801  0.0000
  O1     O1        0.121860071931747    0.155253932541226    0.368104294984417  0.0000
  O1     O1        0.365639915739427    0.916358667143709    0.350586217361230  0.0000
  O1     O1        0.918101856696810    0.239038647625047    0.615404350769020  0.0000
  O1     O1        0.575196686453134    0.775728288802467    0.622519565597019  0.0000
  O1     O1        0.873914909501514    0.894168968987918    0.610155099903590  0.0000
  O1     O1        0.622044194192973    0.119878942646749    0.607061556897906  0.0000
  O3     O3        0.081213592235216    0.798886505260120    0.326116382705570  0.0000
  O1     O1        0.414128828928549    0.253992412857153    0.358352425459876  0.0000
  O1     O1        0.023495123714702    0.987966666700699    0.531481850583132  0.0000
  O1     O1        0.519439894739077    0.992290928534073    0.429240998779954  0.0000
  O1     O1        0.973550780211062    0.052324795393070    0.283770521224751  0.0000
  O1     O1        0.472095138383716    0.025035945331475    0.176579824260360  0.0000
  O3     O3        0.977295532554931    0.013265455662782    0.791213079369497  0.0000
  O1     O1        0.467112975227696    0.030270913700433    0.675363896143365  0.0000
  O1     O1        0.624363841117012    0.108887879774219    0.103712777446009  0.0000
  O1     O1        0.872692875833268    0.877886681547015    0.119422397051806  0.0000
  O1     O1        0.407679509224678    0.238212550600783    0.862300555810124  0.0000
  O3     O3        0.081944409182633    0.796990776141406    0.861456647790371  0.0000
  O3     O3        0.366122568056837    0.884867531678464    0.859404593989321  0.0000
  O3     O3        0.113616302793815    0.125864584115896    0.864787797089894  0.0000
  O1     O1        0.578034069129623    0.769425611316100    0.106968521151870  0.0000
  O3     O3        0.909253806963899    0.237158915774812    0.088079079567220  0.0000
  O1     O1        0.517480880147374    0.988497422572633    0.922575047708542  0.0000
  O3     O3        0.018882705227452    0.988428908835719    0.033203957191059  0.0000
  O3     O3        0.155236540757222    0.505950391332059    0.320022784693286  0.0000
  O1     O1        0.341888893194790    0.570960422879988    0.320149499961059  0.0000
  O1     O1        0.838916800513668    0.549778545709340    0.644381417949900  0.0000
  O1     O1        0.656935102405174    0.469337194828460    0.642341876461007  0.0000
  O1     O1        0.263122356464381    0.261760344373613    0.267600881634292  0.0000
  O3     O3        0.223609448311411    0.798561607499185    0.259403523563126  0.0000
  O1     O1        0.766924257570716    0.229605739367378    0.692356043000087  0.0000
  O1     O1        0.728093332556497    0.785964977284932    0.702339913407115  0.0000
  O1     O1        0.132109579452367    0.264130018782887    0.114039898233475  0.0000
  O3     O3        0.351121433804809    0.770833621201400    0.096856406860147  0.0000
  O3     O3        0.876361002900510    0.366516647906945    0.861511603125998  0.0000
  O1     O1        0.615887882426600    0.641491624671493    0.863253149572875  0.0000
  O1     O1        0.855717202482898    0.769557865143214    0.862830879256281  0.0000
  O1     O1        0.639793841445012    0.248475371110774    0.856479120401092  0.0000
  O3     O3        0.120573905435117    0.652894135118975    0.107252742330025  0.0000
  O1     O1        0.381851362460151    0.362782513456359    0.109363534965113  0.0000
  O1     O1        0.653549625906001    0.455645235151945    0.080825562890997  0.0000
  O3     O3        0.836440145862998    0.528307090433934    0.067836084247581  0.0000
  O3     O3        0.335438872182239    0.557326598930752    0.899725531621807  0.0000
  O1     O1        0.147890585753784    0.473703314019219    0.887962021258106  0.0000
  O3     O3        0.769040632257497    0.232032303062299    0.009706731057073  0.0000
  O1     O1        0.729110823896559    0.772551048087712    0.025011540253174  0.0000
  O1     O1        0.259157574515588    0.245603871212478    0.955572532710480  0.0000
  O3     O3        0.232633334294904    0.783919270817243    0.942766921126047  0.0000
