data_c00342.vasp
_audit_creation_method             Generated by GULP
_audit_author_name                 Salvador R. G. Balestra
_symmetry_space_group_name_H-M     'P 1             '
_symmetry_Int_Tables_number        1

loop_
_symmetry_equiv_pos_site_id
_symmetry_equiv_pos_as_xyz
_cell_length_a                       17.5715
_cell_length_b                        7.7868
_cell_length_c                       10.1477
_cell_angle_alpha                   89.5177
_cell_angle_beta                    91.1290
_cell_angle_gamma                   86.8135

loop_
_atom_site_label
_atom_site_type_symbol
_atom_site_fract_x
_atom_site_fract_y
_atom_site_fract_z
_atom_site_charge
  Ge     Ge        0.052090000000021    0.000000000000000    0.372269999999958  0.0000
  Ge     Ge        0.438441525426060    0.963423583365234    0.361717878015432  0.0000
  Ge     Ge        0.941263354314997    0.959208509450551    0.617209015853091  0.0000
  Ge     Ge        0.527079698366015    0.045455738435721    0.625924002196228  0.0000
  Ge     Ge        0.556835635148589    0.017572231437185    0.139475943993506  0.0000
  Ge     Ge        0.940165361489565    0.934786782054002    0.123699975070480  0.0000
  Ge     Ge        0.438514590119787    0.953551577219698    0.897720676929335  0.0000
  Ge     Ge        0.145776113613302    0.308462508273656    0.261400610184833  0.0000
  Ge     Ge        0.349066057720275    0.642650889374004    0.257559435064367  0.0000
  Ge     Ge        0.813620345302670    0.250274896741173    0.681185498277803  0.0000
  Ge     Ge        0.657746301013178    0.750464363227752    0.698169301707340  0.0000
  Ge     Ge        0.838819459413410    0.653948506166988    0.687787701538480  0.0000
  Ge     Ge        0.633546942365080    0.345380987522423    0.685657644349849  0.0000
  Ge     Ge        0.636129508291014    0.334857475161572    0.008688730357880  0.0000
  Ge     Ge        0.852446198998608    0.624522588349580    0.005192747742109  0.0000
  Ge     Ge        0.159781630301343    0.711278233314846    0.942965450658978  0.0000
  Ge     Ge        0.342665173471752    0.635874890335250    0.931569188048897  0.0000
  Ge     Ge        0.136702485234547    0.306779079655667    0.944593627372970  0.0000
  Ge     Ge        0.670677190558294    0.733530672092182    0.015575864967494  0.0000
  Ge     Ge        0.816610667532255    0.227248683534442    0.003398781951349  0.0000
  Si     Si        0.039611494380856    0.006602331979551    0.875135421760367  0.0000
  Si     Si        0.170010087697938    0.709848569866454    0.256587592358074  0.0000
  Si     Si        0.318814986642414    0.263370579523408    0.256102247366216  0.0000
  Si     Si        0.311454728241943    0.259049259452611    0.944915058760072  0.0000
  O1     O1        0.082446087298677    0.204213322186434    0.355021389942865  0.0000
  O1     O1        0.412747989812712    0.755536232041602    0.347146646152112  0.0000
  O1     O1        0.869007964697029    0.114540640605855    0.586735674940803  0.0000
  O1     O1        0.600677865165156    0.892297523208436    0.606625102325671  0.0000
  O1     O1        0.901774837417536    0.764332367880806    0.597405501818113  0.0000
  O1     O1        0.563947990660900    0.242683610023261    0.602090223962190  0.0000
  O3     O3        0.126387607269681    0.851987308885321    0.343902014639563  0.0000
  O3     O3        0.366659902091502    0.086321037399167    0.279187120625819  0.0000
  O1     O1        0.022074698788676    0.981154463010894    0.531975499404067  0.0000
  O1     O1        0.450009707171216    0.012585788339311    0.525274712215940  0.0000
  O1     O1        0.971223681589395    0.959832432070508    0.282626930779551  0.0000
  O1     O1        0.525388701752943    0.005299212802051    0.298198183073989  0.0000
  O3     O3        0.967323679287439    0.976663596386892    0.783755586177437  0.0000
  O1     O1        0.497091194038682    0.037809505061793    0.786958875487780  0.0000
  O1     O1        0.570608296999847    0.226821516656369    0.095727774482675  0.0000
  O1     O1        0.918606559753064    0.725035457180963    0.098020962409292  0.0000
  O3     O3        0.354394475649605    0.080451365362133    0.918539265856244  0.0000
  O3     O3        0.109141396942189    0.866480134307400    0.851483806080138  0.0000
  O1     O1        0.405585347915360    0.758334863823421    0.850608580194870  0.0000
  O3     O3        0.071342440659149    0.194765783111265    0.854122792451292  0.0000
  O1     O1        0.637846501376024    0.889107953202402    0.121380240428590  0.0000
  O1     O1        0.859783452065401    0.064701572865169    0.095226390906204  0.0000
  O1     O1        0.484677885952947    0.934510877350527    0.046988128443533  0.0000
  O3     O3        0.014809898143690    0.986980804791624    0.026601071572887  0.0000
  O3     O3        0.129066137745101    0.529704068815474    0.265349666897566  0.0000
  O3     O3        0.366800875252947    0.424428526382863    0.297702598849701  0.0000
  O1     O1        0.821964204275732    0.457558836048030    0.623566724729465  0.0000
  O1     O1        0.645217684799629    0.549581624596087    0.631886535281885  0.0000
  O3     O3        0.237617013673401    0.258224974838859    0.324207736730985  0.0000
  O3     O3        0.256558776469005    0.686940684627766    0.308504539905528  0.0000
  O1     O1        0.717359938243078    0.219110838394737    0.676198197979197  0.0000
  O1     O1        0.754072556537233    0.778782824102680    0.694754326959617  0.0000
  O1     O1        0.131328796616100    0.237050982042998    0.104621067775113  0.0000
  O1     O1        0.359457067860872    0.687044185587255    0.094609896437368  0.0000
  O1     O1        0.844383762011830    0.224709531685690    0.842603094635913  0.0000
  O1     O1        0.629680423853944    0.765994044974678    0.860371815169132  0.0000
  O1     O1        0.877525831669573    0.615758146763484    0.843033103563815  0.0000
  O1     O1        0.607700532029501    0.365433502237065    0.848177270171462  0.0000
  O3     O3        0.169188030152761    0.773343545059036    0.105530608296208  0.0000
  O2     O2        0.295541247156355    0.302506446939066    0.100715757694984  0.0000
  O1     O1        0.649351897679108    0.533203632079577    0.074323839253904  0.0000
  O1     O1        0.840275262508178    0.423278896461461    0.066849512732752  0.0000
  O3     O3        0.359857441708272    0.418155995248346    0.898029936765774  0.0000
  O1     O1        0.113946126199514    0.522272328714613    0.932196920966943  0.0000
  O1     O1        0.720126279880787    0.210127191640323    0.010674118927659  0.0000
  O1     O1        0.766657673869490    0.743862052869693    0.003587212120321  0.0000
  O3     O3        0.227279153938597    0.264585654307307    0.881224238373448  0.0000
  O1     O1        0.249804162653641    0.682550131693769    0.883365906397033  0.0000
