data_c00353.vasp
_audit_creation_method             Generated by GULP
_audit_author_name                 Salvador R. G. Balestra
_symmetry_space_group_name_H-M     'P 1             '
_symmetry_Int_Tables_number        1

loop_
_symmetry_equiv_pos_site_id
_symmetry_equiv_pos_as_xyz
_cell_length_a                       17.6964
_cell_length_b                        7.8038
_cell_length_c                       10.1646
_cell_angle_alpha                   92.5693
_cell_angle_beta                    91.2497
_cell_angle_gamma                   89.0013

loop_
_atom_site_label
_atom_site_type_symbol
_atom_site_fract_x
_atom_site_fract_y
_atom_site_fract_z
_atom_site_charge
  Ge     Ge        0.052090000000021    0.000000000000000    0.372269999999958  0.0000
  Ge     Ge        0.450899436401265    0.962289690339981    0.355618650392983  0.0000
  Ge     Ge        0.946013911660526    0.914585408589670    0.615690239226986  0.0000
  Ge     Ge        0.551261142157127    0.979266108983633    0.615367782540822  0.0000
  Ge     Ge        0.540486418957332    0.016304444097071    0.084066361416172  0.0000
  Ge     Ge        0.949565360983455    0.955598204476952    0.108909918261981  0.0000
  Ge     Ge        0.428120736794690    0.928441888039378    0.830509126892458  0.0000
  Ge     Ge        0.146769041131593    0.307075783599845    0.291488165270984  0.0000
  Ge     Ge        0.351760255853479    0.643966993805809    0.275299728589478  0.0000
  Ge     Ge        0.820665761922305    0.203540038474104    0.723626988779500  0.0000
  Ge     Ge        0.665808856044589    0.678303208536933    0.710937812105584  0.0000
  Ge     Ge        0.850046218647534    0.606839203236845    0.715056760891645  0.0000
  Ge     Ge        0.173354530911540    0.714391649216121    0.288848914053182  0.0000
  Ge     Ge        0.325739279197420    0.233412797675029    0.277512141271178  0.0000
  Ge     Ge        0.649657891412890    0.326673330116889    0.046189060967020  0.0000
  Ge     Ge        0.845541231783351    0.643799882019278    0.033562596280202  0.0000
  Ge     Ge        0.316185350954749    0.221583307866675    0.960866035951705  0.0000
  Ge     Ge        0.336868992885102    0.623250001679598    0.953309798781243  0.0000
  Ge     Ge        0.665920832462076    0.725562771773320    0.026450745271954  0.0000
  Ge     Ge        0.820866673631644    0.236430998946739    0.052647359490968  0.0000
  Si     Si        0.050902382868449    0.976150056313003    0.863012017060477  0.0000
  Si     Si        0.650551399872866    0.290313359496868    0.725164173960673  0.0000
  Si     Si        0.158306732039504    0.685361006688238    0.976274541606495  0.0000
  Si     Si        0.137374699962276    0.293474714897925    0.984239363448429  0.0000
  O1     O1        0.087160343882692    0.203615351605836    0.391358290332902  0.0000
  O1     O1        0.419455303433967    0.755603951106693    0.364412676378975  0.0000
  O1     O1        0.867166145196435    0.037379444828603    0.646253884073992  0.0000
  O1     O1        0.617556757985976    0.819109335712401    0.612908128397481  0.0000
  O1     O1        0.916638974530210    0.708435106480025    0.626774402998716  0.0000
  O3     O3        0.579360437300914    0.171180468845763    0.694089052639900  0.0000
  O1     O1        0.124662931346438    0.853051191397403    0.390859725911220  0.0000
  O1     O1        0.376306975964913    0.104519038052266    0.379099235404920  0.0000
  O1     O1        0.974808753521411    0.956355694538801    0.459955898562609  0.0000
  O1     O1        0.527981378530091    0.009664614915395    0.451501233584406  0.0000
  O1     O1        0.026605881690662    0.980592133087107    0.206932890576666  0.0000
  O1     O1        0.471726440979892    0.986294556165689    0.191816364808561  0.0000
  O3     O3        0.026404010126431    0.964424736143589    0.710647414843367  0.0000
  O1     O1        0.464015221834461    0.930405953847595    0.675085200923288  0.0000
  O1     O1        0.570739618919121    0.227071823663519    0.091033804388141  0.0000
  O1     O1        0.907751469617446    0.761805586621393    0.128614761375369  0.0000
  O1     O1        0.351581378299873    0.063694742343797    0.857747064330613  0.0000
  O2     O2        0.110534479625130    0.821652039981803    0.891887378088396  0.0000
  O1     O1        0.395692717272876    0.726835528495203    0.854747339378511  0.0000
  O2     O2        0.084318612982369    0.166793691981653    0.893990080116799  0.0000
  O1     O1        0.617536437066926    0.884707678367187    0.111286828063694  0.0000
  O1     O1        0.882191402052605    0.113757481996132    0.140407495349488  0.0000
  O1     O1        0.505287322268129    0.982018650414700    0.926681848021314  0.0000
  O3     O3        0.975529327139263    0.957585328782592    0.944247226748356  0.0000
  O1     O1        0.161444770703239    0.512201936897024    0.346916777929471  0.0000
  O1     O1        0.340228913478911    0.444268669632176    0.330727567883563  0.0000
  O1     O1        0.845473057434101    0.395721404706239    0.662174164444520  0.0000
  O3     O3        0.645130100672388    0.469276868664229    0.652811085527331  0.0000
  O1     O1        0.231013680091973    0.193820691412882    0.285547336108542  0.0000
  O1     O1        0.267173057366209    0.758483350490831    0.287191059053586  0.0000
  O3     O3        0.724685676115322    0.178160923031575    0.687303158034161  0.0000
  O1     O1        0.761551403982498    0.702788085843397    0.703437353675770  0.0000
  O3     O3        0.107778290623239    0.308045364693261    0.131610827076926  0.0000
  O1     O1        0.373750077679906    0.631214109543828    0.110738508103424  0.0000
  O1     O1        0.839755287637609    0.197407325163266    0.888771225145977  0.0000
  O1     O1        0.632499073128372    0.728166569992518    0.865302835440443  0.0000
  O1     O1        0.878953844436403    0.613251274644066    0.876986419337807  0.0000
  O3     O3        0.661560773462968    0.354192638694776    0.877746157448495  0.0000
  O3     O3        0.137343693331707    0.713029116400626    0.127758663330537  0.0000
  O1     O1        0.355105988356551    0.208449678972626    0.116138148303807  0.0000
  O1     O1        0.649018695830579    0.536273466631847    0.102365191413895  0.0000
  O1     O1        0.831088408618363    0.450679100127312    0.098572734218904  0.0000
  O1     O1        0.334287107856758    0.414728967802411    0.895540011233142  0.0000
  O2     O2        0.138669989224672    0.486917893161381    0.928511789716428  0.0000
  O1     O1        0.727624719370561    0.203827046785271    0.087008389537634  0.0000
  O1     O1        0.761191993730942    0.759017967702609    0.024047472739156  0.0000
  O3     O3        0.220214747476006    0.209760541697128    0.984011386367730  0.0000
  O3     O3        0.246453097187758    0.714741559514237    0.956668190324443  0.0000
