data_c00365.vasp
_audit_creation_method             Generated by GULP
_audit_author_name                 Salvador R. G. Balestra
_symmetry_space_group_name_H-M     'P 1             '
_symmetry_Int_Tables_number        1

loop_
_symmetry_equiv_pos_site_id
_symmetry_equiv_pos_as_xyz
_cell_length_a                       17.7337
_cell_length_b                        7.8127
_cell_length_c                       10.1390
_cell_angle_alpha                   92.4419
_cell_angle_beta                    90.9458
_cell_angle_gamma                   88.8917

loop_
_atom_site_label
_atom_site_type_symbol
_atom_site_fract_x
_atom_site_fract_y
_atom_site_fract_z
_atom_site_charge
  Ge     Ge        0.052090000000021    0.000000000000000    0.372269999999958  0.0000
  Ge     Ge        0.453129029979178    0.966889223088737    0.371521105783043  0.0000
  Ge     Ge        0.945934944816169    0.923982303865734    0.616657668314806  0.0000
  Ge     Ge        0.552687284645410    0.992829218746596    0.632635081457768  0.0000
  Ge     Ge        0.549066249259413    0.022304585410119    0.105083507171454  0.0000
  Ge     Ge        0.951643127016531    0.957891347103852    0.106349273066159  0.0000
  Ge     Ge        0.436216241525339    0.940693017387844    0.857197846772526  0.0000
  Ge     Ge        0.147598132803511    0.312574997180552    0.299327842437808  0.0000
  Ge     Ge        0.355594214928417    0.646728031330286    0.296656854684204  0.0000
  Ge     Ge        0.822787107425910    0.214030438595634    0.731038153407809  0.0000
  Ge     Ge        0.667799734772924    0.691036992563923    0.725767013822684  0.0000
  Ge     Ge        0.850080247391739    0.619881511076743    0.724677307696605  0.0000
  Ge     Ge        0.175533590739810    0.716450181670131    0.300339268290313  0.0000
  Ge     Ge        0.326678197695045    0.239534135817169    0.292401833069649  0.0000
  Ge     Ge        0.656204099688282    0.333985219820081    0.065217253633079  0.0000
  Ge     Ge        0.168110960347753    0.703101051985431    0.978853444867724  0.0000
  Ge     Ge        0.349141766040179    0.628306117626817    0.977357130876671  0.0000
  Ge     Ge        0.145303982035479    0.300776746658868    0.979269700268456  0.0000
  Ge     Ge        0.671479213475762    0.729729586993078    0.042544088601664  0.0000
  Ge     Ge        0.828385981966637    0.251104768658571    0.058640460097969  0.0000
  Si     Si        0.054352103449245    0.986785639073795    0.858604182768980  0.0000
  Si     Si        0.652977714356809    0.301236096512916    0.741605245358340  0.0000
  Si     Si        0.847944516040209    0.651773658592749    0.037124749951059  0.0000
  Si     Si        0.323106811996460    0.230357528550254    0.979765841323290  0.0000
  O1     O1        0.085037494630793    0.205033576859099    0.391616234736116  0.0000
  O1     O1        0.420909042067078    0.762504414645667    0.387670170366617  0.0000
  O1     O1        0.868827475098799    0.052887247478624    0.646373832480895  0.0000
  O1     O1        0.618469118913990    0.831240014750147    0.629542943709118  0.0000
  O1     O1        0.917059043296341    0.718974714042104    0.636710389977306  0.0000
  O3     O3        0.581677119515397    0.184807045595669    0.708932008436434  0.0000
  O1     O1        0.126076633455011    0.859374538073941    0.398789768302906  0.0000
  O1     O1        0.377152359618546    0.106317101048576    0.389577889700774  0.0000
  O1     O1        0.973649992091026    0.956333403399053    0.458054926747434  0.0000
  O1     O1        0.528539279857461    0.020594934541714    0.468650683322833  0.0000
  O1     O1        0.028377927093721    0.969920863460321    0.206180983339807  0.0000
  O1     O1        0.478393975747669    0.985359788122950    0.208495629469326  0.0000
  O3     O3        0.027313483120403    0.971765465065308    0.706925857240989  0.0000
  O1     O1        0.466887917508853    0.945710901359886    0.697725670743278  0.0000
  O1     O1        0.579668276026779    0.231820613243022    0.117410708686360  0.0000
  O3     O3        0.904711703025120    0.767201611620315    0.124237357571344  0.0000
  O3     O3        0.362334794367482    0.083653103406551    0.888448925587479  0.0000
  O3     O3        0.121976492126216    0.853701661982468    0.886613559726166  0.0000
  O1     O1        0.409078559271102    0.734527465027630    0.880935883236143  0.0000
  O3     O3        0.082423275007795    0.179198423708939    0.887154641354829  0.0000
  O1     O1        0.627418210334697    0.892813331987597    0.129900138138967  0.0000
  O1     O1        0.891480457128211    0.128599171722234    0.143248601448519  0.0000
  O1     O1        0.516062524300221    0.990903134566329    0.946206514115989  0.0000
  O3     O3        0.980912760187633    0.953139094742534    0.943626721403219  0.0000
  O1     O1        0.162550270251779    0.515337648820561    0.360446705935306  0.0000
  O1     O1        0.342955310372974    0.446780705297140    0.351433538374933  0.0000
  O1     O1        0.846442621415901    0.408968121757553    0.673240123514487  0.0000
  O3     O3        0.647871970169045    0.481281989114032    0.670736935969885  0.0000
  O1     O1        0.232498715497820    0.199608956687382    0.297175338546823  0.0000
  O1     O1        0.269909426872649    0.756790287703933    0.299381599960372  0.0000
  O3     O3        0.726717835786369    0.189501135500447    0.700229018482089  0.0000
  O1     O1        0.762961863810080    0.718230159630573    0.710452234810485  0.0000
  O1     O1        0.114707260845440    0.319399446981449    0.138499320183570  0.0000
  O1     O1        0.384690821917403    0.634076861171604    0.135145633892580  0.0000
  O1     O1        0.844255078178433    0.198477285510501    0.895271297205947  0.0000
  O1     O1        0.636993082951953    0.737361152821062    0.882707832315766  0.0000
  O3     O3        0.878130751831823    0.623089732563080    0.889183831824777  0.0000
  O3     O3        0.664726248664396    0.358858497343192    0.895402479771652  0.0000
  O1     O1        0.141030745899559    0.716465070874721    0.140003111733333  0.0000
  O3     O3        0.355940726816277    0.223992402488798    0.128512412643423  0.0000
  O1     O1        0.652670925667791    0.543832080992372    0.120199245078325  0.0000
  O3     O3        0.838681898388904    0.468576579156103    0.098465928178783  0.0000
  O3     O3        0.338681808090110    0.416351677757275    0.923313776035341  0.0000
  O1     O1        0.149084428802442    0.499409245712821    0.915858354966074  0.0000
  O1     O1        0.736981866404498    0.219709257178537    0.103333980649247  0.0000
  O3     O3        0.767855366901381    0.753862982847521    0.031370203081561  0.0000
  O3     O3        0.233757019885060    0.202522299487823    0.982022621277029  0.0000
  O1     O1        0.263157726816210    0.732677244233217    0.972930118880660  0.0000
