data_c00386.vasp
_audit_creation_method             Generated by GULP
_audit_author_name                 Salvador R. G. Balestra
_symmetry_space_group_name_H-M     'P 1             '
_symmetry_Int_Tables_number        1

loop_
_symmetry_equiv_pos_site_id
_symmetry_equiv_pos_as_xyz
_cell_length_a                       17.7843
_cell_length_b                        7.8096
_cell_length_c                       10.4690
_cell_angle_alpha                   91.7119
_cell_angle_beta                    90.1944
_cell_angle_gamma                   89.5990

loop_
_atom_site_label
_atom_site_type_symbol
_atom_site_fract_x
_atom_site_fract_y
_atom_site_fract_z
_atom_site_charge
  Ge     Ge        0.052090000000021    0.000000000000000    0.372269999999958  0.0000
  Ge     Ge        0.445942018445567    0.027491438304660    0.336759447297123  0.0000
  Ge     Ge        0.948023301140451    0.970587417787931    0.625962852558969  0.0000
  Ge     Ge        0.549076846059675    0.012300577921311    0.591482682057012  0.0000
  Ge     Ge        0.543532449587557    0.019270988587248    0.076282397773244  0.0000
  Ge     Ge        0.942389378535016    0.984700729774287    0.125598874700975  0.0000
  Ge     Ge        0.434646014077247    0.002927549883378    0.829792592315755  0.0000
  Ge     Ge        0.165947582771190    0.287976912385310    0.264211695723971  0.0000
  Ge     Ge        0.325739970561844    0.747733220365984    0.252538248409381  0.0000
  Ge     Ge        0.824266310095933    0.254078110188479    0.699536834691175  0.0000
  Ge     Ge        0.667069722836775    0.721175346718918    0.700940043157938  0.0000
  Ge     Ge        0.846650090037332    0.660013018975162    0.697899916481382  0.0000
  Ge     Ge        0.344768187541269    0.336933540721641    0.259509346953605  0.0000
  Ge     Ge        0.643911868785469    0.332795450396644    0.007451083567378  0.0000
  Ge     Ge        0.847773718015453    0.668411952009566    0.011502410034142  0.0000
  Ge     Ge        0.142086243847080    0.671511280655009    0.949419598540721  0.0000
  Ge     Ge        0.322016896952127    0.719209630283429    0.943961968731021  0.0000
  Ge     Ge        0.160498434934769    0.264542007376657    0.955597902042253  0.0000
  Ge     Ge        0.669055905011617    0.740598022589453    0.011314491335093  0.0000
  Ge     Ge        0.821658440668439    0.259446401037887    0.010293295327165  0.0000
  Si     Si        0.045127814874559    0.984611812402736    0.880864179227205  0.0000
  Si     Si        0.648708368703304    0.319226137381079    0.702838514052136  0.0000
  Si     Si        0.150145913252109    0.690534666578861    0.253181466689393  0.0000
  Si     Si        0.337988577741523    0.313073740953667    0.955316350279827  0.0000
  O1     O1        0.113869529399461    0.166055841427461    0.363161680792208  0.0000
  O1     O1        0.372251751929793    0.886611541657228    0.352384811341593  0.0000
  O1     O1        0.873865619838106    0.110898722266484    0.606497328992762  0.0000
  O1     O1        0.611990251191012    0.847875176712884    0.608011495083213  0.0000
  O1     O1        0.911354067120909    0.769039679867674    0.611057949168169  0.0000
  O3     O3        0.589317761168060    0.210294536562617    0.620204609313025  0.0000
  O3     O3        0.092747509928457    0.802821760493890    0.337371442436151  0.0000
  O1     O1        0.409864789394554    0.231793246499927    0.348766712943191  0.0000
  O1     O1        0.022051026454479    0.999618885584894    0.527946960981650  0.0000
  O1     O1        0.521183119862159    0.001297236124498    0.433397131148393  0.0000
  O1     O1        0.973953596706434    0.022163068179873    0.278328037065941  0.0000
  O1     O1        0.473416209767252    0.986824941347726    0.180655705897957  0.0000
  O3     O3        0.978736193357113    0.010814279328921    0.782182296858666  0.0000
  O1     O1        0.466859673727229    0.998314108989653    0.675421983667838  0.0000
  O1     O1        0.576172463553126    0.226575314087525    0.087507415709859  0.0000
  O1     O1        0.913414558136882    0.777135338925667    0.101147574321522  0.0000
  O3     O3        0.393629200093504    0.199757005858884    0.868033943881651  0.0000
  O3     O3        0.076080741797145    0.790069520525164    0.868675089522839  0.0000
  O1     O1        0.371095013469391    0.839451951420083    0.840479327201930  0.0000
  O3     O3        0.114550947582815    0.113706386607805    0.861649730225207  0.0000
  O1     O1        0.618791985257425    0.883681611020109    0.102202565784861  0.0000
  O1     O1        0.867158483240426    0.118991698454372    0.104902215052293  0.0000
  O1     O1        0.511790014254576    0.972623320543588    0.923683866257661  0.0000
  O3     O3        0.015238044301720    0.028800233814847    0.023233513916293  0.0000
  O3     O3        0.160871962781699    0.504002439200903    0.310430359885689  0.0000
  O1     O1        0.341100684146178    0.545762681990358    0.308635220128356  0.0000
  O1     O1        0.839361749549917    0.454206083864297    0.640806228021318  0.0000
  O3     O3        0.659173907991070    0.507508590851181    0.648997559047888  0.0000
  O1     O1        0.259443135144890    0.236415724260099    0.272610745586343  0.0000
  O3     O3        0.229700151065386    0.787849050471614    0.249418008835963  0.0000
  O3     O3        0.728093987400857    0.217353093529717    0.699620243590754  0.0000
  O1     O1        0.761128193237266    0.766018305200261    0.691318743648510  0.0000
  O1     O1        0.132182779198470    0.258446843365264    0.111976837535124  0.0000
  O1     O1        0.355038018653277    0.757238439083021    0.096135029921057  0.0000
  O1     O1        0.853430281840624    0.243639275108440    0.855665909166009  0.0000
  O1     O1        0.638113779634969    0.748805406010913    0.855238710166704  0.0000
  O1     O1        0.875694716049789    0.656998261404516    0.854694562549485  0.0000
  O3     O3        0.618590069315408    0.338349447130820    0.847006180909977  0.0000
  O3     O3        0.117946821660307    0.670167494729404    0.109872269805661  0.0000
  O3     O3        0.370358861566697    0.324142254191961    0.098887740749636  0.0000
  O1     O1        0.654310294291375    0.536552641961679    0.065895657500713  0.0000
  O1     O1        0.836018392388614    0.466961300445124    0.066611297906701  0.0000
  O3     O3        0.329915946535854    0.502567640795112    0.902222408531363  0.0000
  O1     O1        0.142430977205447    0.463279262933120    0.894846913373516  0.0000
  O1     O1        0.727030927218851    0.220150123834389    0.014770091051176  0.0000
  O1     O1        0.763481008986064    0.779297118467521    0.016536016123173  0.0000
  O3     O3        0.256300347109053    0.224642479970036    0.956302509132249  0.0000
  O1     O1        0.227900565400665    0.766002798454779    0.934801883930950  0.0000
