data_c00319.vasp
_audit_creation_method             Generated by GULP
_audit_author_name                 Salvador R. G. Balestra
_symmetry_space_group_name_H-M     'P 1             '
_symmetry_Int_Tables_number        1

loop_
_symmetry_equiv_pos_site_id
_symmetry_equiv_pos_as_xyz
_cell_length_a                       17.7828
_cell_length_b                        7.8644
_cell_length_c                       10.2974
_cell_angle_alpha                   92.3926
_cell_angle_beta                    89.0520
_cell_angle_gamma                   88.0444

loop_
_atom_site_label
_atom_site_type_symbol
_atom_site_fract_x
_atom_site_fract_y
_atom_site_fract_z
_atom_site_charge
  Ge     Ge        0.052090000000021    0.000000000000000    0.372269999999958  0.0000
  Ge     Ge        0.449551308195181    0.001887802424766    0.352554801628513  0.0000
  Ge     Ge        0.961089363966627    0.939631986775882    0.638437861815582  0.0000
  Ge     Ge        0.558058391625858    0.998780870110611    0.599644501113061  0.0000
  Ge     Ge        0.552867165389975    0.024507177718844    0.095141855013258  0.0000
  Ge     Ge        0.938812249291244    0.981380696537998    0.142145404432405  0.0000
  Ge     Ge        0.446655099334575    0.978493625478962    0.846986367927338  0.0000
  Ge     Ge        0.158176210074119    0.299883595516947    0.282328064123142  0.0000
  Ge     Ge        0.329850725456537    0.722958385732474    0.279637672137701  0.0000
  Ge     Ge        0.835488285511767    0.233635065405257    0.714571374561873  0.0000
  Ge     Ge        0.678880948007904    0.711845585087502    0.711924641829533  0.0000
  Ge     Ge        0.858793812007101    0.639013636471447    0.713736576824751  0.0000
  Ge     Ge        0.656477640111220    0.307965881896725    0.712283836913216  0.0000
  Ge     Ge        0.342696741589730    0.307288620921993    0.279430199932095  0.0000
  Ge     Ge        0.650243979531758    0.335140426210517    0.028524382947848  0.0000
  Ge     Ge        0.856459345625098    0.652624930627317    0.027618016589292  0.0000
  Ge     Ge        0.162190203809123    0.655146210870743    0.951303834081933  0.0000
  Ge     Ge        0.334902504293308    0.693596773621266    0.958614086371547  0.0000
  Ge     Ge        0.161277591264849    0.261772578217515    0.972322363963894  0.0000
  Ge     Ge        0.675112707161378    0.731536794915962    0.027894584260919  0.0000
  Si     Si        0.052996508763505    0.971912706039934    0.904552947751420  0.0000
  Si     Si        0.159664659446305    0.687312276613360    0.266769986727484  0.0000
  Si     Si        0.341504813216049    0.281535791337332    0.976195067942358  0.0000
  Si     Si        0.828252963812493    0.258642086503706    0.023276587274839  0.0000
  O1     O1        0.106284557359605    0.173888254513646    0.380051057503056  0.0000
  O1     O1        0.385217239820464    0.847248305940145    0.374260073557094  0.0000
  O1     O1        0.890046018841984    0.091693413326958    0.622050292892205  0.0000
  O1     O1        0.628950319466071    0.849715470988624    0.619193827624896  0.0000
  O1     O1        0.923079368188442    0.743164346211405    0.623098029052185  0.0000
  O1     O1        0.591298222294371    0.198794463803361    0.625712343524287  0.0000
  O3     O3        0.092799378381480    0.826128229622045    0.281680016205424  0.0000
  O1     O1        0.400734409018713    0.193874759334284    0.376467214115137  0.0000
  O1     O1        0.033947201556869    0.950460992228661    0.530205069108179  0.0000
  O1     O1        0.528809832728782    0.984062465932877    0.440569231017046  0.0000
  O1     O1        0.967241701509070    0.026993741840383    0.297449188604213  0.0000
  O1     O1        0.478404162600425    0.984305125257356    0.191126981602360  0.0000
  O3     O3        0.991888793823082    0.981274023566744    0.794785980710323  0.0000
  O1     O1        0.477132893836379    0.969700096099249    0.688005974542895  0.0000
  O1     O1        0.587930990083787    0.225000995000003    0.117510954588816  0.0000
  O1     O1        0.914348337394431    0.772171860414774    0.123410881043758  0.0000
  O3     O3        0.388359995997939    0.157285228161541    0.876264011374645  0.0000
  O3     O3        0.087009707318397    0.778697394978009    0.907558511058228  0.0000
  O1     O1        0.399918371967750    0.793791313839558    0.869313000501422  0.0000
  O3     O3        0.120216906412548    0.099967156348489    0.882453478279942  0.0000
  O1     O1        0.628107126843284    0.885890156165073    0.119131607715291  0.0000
  O3     O3        0.863172091712155    0.116628576496661    0.112868676259711  0.0000
  O1     O1        0.526452155022591    0.992790663884415    0.935794859456748  0.0000
  O3     O3        0.014343603339290    0.024279933809704    0.042609898763254  0.0000
  O3     O3        0.143586552306590    0.512347528076750    0.336306741844309  0.0000
  O1     O1        0.348183700102640    0.517593368914422    0.320424823195235  0.0000
  O1     O1        0.849205303841768    0.434245201468184    0.658171851765926  0.0000
  O1     O1        0.668881646650197    0.505546117296481    0.652951981326466  0.0000
  O1     O1        0.251663642271234    0.243427010734177    0.293199050350881  0.0000
  O3     O3        0.235460439100249    0.771292203714541    0.317700562882261  0.0000
  O1     O1        0.741531708220713    0.194354138820385    0.704798697667059  0.0000
  O1     O1        0.773445631226368    0.749891334950575    0.710721853499249  0.0000
  O1     O1        0.125570541032900    0.263431707613599    0.128391459886344  0.0000
  O1     O1        0.348036099738548    0.754972712645815    0.118191966730068  0.0000
  O3     O3        0.861196709569435    0.235949915609012    0.876827972267320  0.0000
  O1     O1        0.645597544673908    0.730699997041346    0.869166472869911  0.0000
  O1     O1        0.890287017087598    0.644239790735756    0.871266931583161  0.0000
  O1     O1        0.622812905026673    0.332684341503457    0.869341230081108  0.0000
  O3     O3        0.176903692696923    0.623919114840278    0.116542441203551  0.0000
  O3     O3        0.375436974224579    0.270768137339187    0.119469662937605  0.0000
  O1     O1        0.654682972330436    0.537506740964937    0.090810443164594  0.0000
  O3     O3        0.847119094918943    0.447498024459134    0.079826961159553  0.0000
  O3     O3        0.343731442895902    0.474207845991506    0.932657849183756  0.0000
  O1     O1        0.146413217875278    0.450205238170775    0.896670916207201  0.0000
  O3     O3        0.739195671976452    0.236679144072976    0.021126915895717  0.0000
  O1     O1        0.769936933740308    0.756060788709881    0.030101979788328  0.0000
  O3     O3        0.256618041756141    0.218043713143790    0.982895965018481  0.0000
  O1     O1        0.245327654950883    0.739170247924251    0.905069198943934  0.0000
