data_c00315.vasp
_audit_creation_method             Generated by GULP
_audit_author_name                 Salvador R. G. Balestra
_symmetry_space_group_name_H-M     'P 1             '
_symmetry_Int_Tables_number        1

loop_
_symmetry_equiv_pos_site_id
_symmetry_equiv_pos_as_xyz
_cell_length_a                       17.6849
_cell_length_b                        7.8678
_cell_length_c                       10.2784
_cell_angle_alpha                   91.5917
_cell_angle_beta                    89.5871
_cell_angle_gamma                   88.7642

loop_
_atom_site_label
_atom_site_type_symbol
_atom_site_fract_x
_atom_site_fract_y
_atom_site_fract_z
_atom_site_charge
  Ge     Ge        0.052090000000021    0.000000000000000    0.372269999999958  0.0000
  Ge     Ge        0.445304086445693    0.025680917757077    0.389380596621709  0.0000
  Ge     Ge        0.962749268494283    0.936369476273636    0.638837180110596  0.0000
  Ge     Ge        0.556318459686796    0.989663908908964    0.631754584822861  0.0000
  Ge     Ge        0.557617735443948    0.001938524538106    0.139073526054817  0.0000
  Ge     Ge        0.937941023237456    0.971358201375286    0.142136227535477  0.0000
  Ge     Ge        0.451700750642470    0.974685168844626    0.889761325648617  0.0000
  Ge     Ge        0.161723583707832    0.304074618454516    0.287793319283198  0.0000
  Ge     Ge        0.326281112729796    0.746303041976697    0.261763369503486  0.0000
  Ge     Ge        0.837260005230636    0.228962992721878    0.712479102790074  0.0000
  Ge     Ge        0.677835368445381    0.705347949644783    0.705551182310477  0.0000
  Ge     Ge        0.858339988937398    0.635272564009658    0.711344021054129  0.0000
  Ge     Ge        0.658291343566788    0.299775702648597    0.700236197875147  0.0000
  Ge     Ge        0.345085802250264    0.331928874108601    0.285607684097420  0.0000
  Ge     Ge        0.647323732391500    0.316823196454164    0.016768708992490  0.0000
  Ge     Ge        0.858005618654127    0.638752910996049    0.025129501444487  0.0000
  Ge     Ge        0.347187132369902    0.293046103716585    0.973001637404386  0.0000
  Ge     Ge        0.329635115338421    0.704694968786550    0.951841387868795  0.0000
  Ge     Ge        0.163943337984350    0.266231727335770    0.966057835642836  0.0000
  Ge     Ge        0.674841252242756    0.714226142014744    0.021937469025163  0.0000
  Si     Si        0.053734921575802    0.972931082283811    0.909109154364250  0.0000
  Si     Si        0.156066507223629    0.689188389964546    0.261434478497067  0.0000
  Si     Si        0.159071780393938    0.651442651274290    0.954820468303644  0.0000
  Si     Si        0.827511005062154    0.246563411932374    0.021630485503714  0.0000
  O1     O1        0.106963346683512    0.175162623229701    0.379071390297270  0.0000
  O1     O1        0.372966875210535    0.891454859975918    0.354377909995628  0.0000
  O1     O1        0.894490043532685    0.093865166101592    0.622173102386729  0.0000
  O1     O1        0.626113274502628    0.835110325545988    0.607375512026136  0.0000
  O1     O1        0.921579419086071    0.742968664025834    0.619076824635183  0.0000
  O1     O1        0.595953327679676    0.184208163199893    0.609069317099806  0.0000
  O3     O3        0.092688907912759    0.833170156687555    0.278640782166144  0.0000
  O1     O1        0.409102481538254    0.230147298235750    0.382456277108016  0.0000
  O1     O1        0.035962674367243    0.950006382958076    0.531291349042166  0.0000
  O1     O1        0.475846942760347    0.976371495314343    0.542568933199540  0.0000
  O1     O1        0.966183245046093    0.022190759955776    0.297489626261790  0.0000
  O1     O1        0.526093482391375    0.998731981734800    0.296744721958687  0.0000
  O3     O3        0.992524111189793    0.959645393863937    0.798176141582687  0.0000
  O1     O1        0.529084356611724    0.964469821693600    0.791406681571328  0.0000
  O1     O1        0.582305159008117    0.205767974233542    0.100894686180415  0.0000
  O1     O1        0.915712927445908    0.761102291573461    0.121879436952977  0.0000
  O1     O1        0.409775377314036    0.173638865267592    0.881205095351113  0.0000
  O2     O2        0.095066141834596    0.788410013936839    0.921784021350495  0.0000
  O1     O1        0.384517027834615    0.824587675755259    0.854403304346082  0.0000
  O3     O3        0.115296399127231    0.113615313472391    0.879141183949814  0.0000
  O1     O1        0.635653986221580    0.871730729400592    0.119675847343813  0.0000
  O3     O3        0.860436579331928    0.100373435814696    0.110903376980545  0.0000
  O1     O1        0.484540671360776    0.934409895773056    0.044003004077219  0.0000
  O3     O3        0.013311199945771    0.026302732345291    0.044134345076958  0.0000
  O3     O3        0.127307798694634    0.511779468310386    0.313542013754180  0.0000
  O1     O1        0.363916516331312    0.544416277363829    0.277361138727076  0.0000
  O1     O1        0.848412325009102    0.431379022326549    0.655696587433069  0.0000
  O1     O1        0.669829298756133    0.499291306009922    0.644705397659160  0.0000
  O1     O1        0.253698163386086    0.303626827722916    0.338149063593740  0.0000
  O3     O3        0.233944250925629    0.748926570204446    0.324679414870985  0.0000
  O1     O1        0.743070794959203    0.186017914740248    0.699286476883713  0.0000
  O1     O1        0.772904995207256    0.745674304575953    0.708149858338335  0.0000
  O1     O1        0.155272720084737    0.231717321453247    0.129296102733828  0.0000
  O1     O1        0.328826610337373    0.805716141378605    0.102815930817035  0.0000
  O3     O3        0.861387972769043    0.227024680640014    0.875946571135882  0.0000
  O1     O1        0.644766963384978    0.722914533428816    0.863570695253956  0.0000
  O1     O1        0.891251104789867    0.634438575042518    0.868804467964655  0.0000
  O1     O1        0.622299525314357    0.317742000089088    0.856373534803267  0.0000
  O2     O2        0.180956177853711    0.644527637831149    0.109604289790705  0.0000
  O1     O1        0.354519547521186    0.237131402132207    0.133098021954503  0.0000
  O1     O1        0.650045202497735    0.519506483463109    0.080180231404795  0.0000
  O3     O3        0.849244623325192    0.432863430694797    0.078992029542159  0.0000
  O1     O1        0.367663195332743    0.504004787552698    0.961777947885943  0.0000
  O3     O3        0.129396347822280    0.465389178671693    0.920196336991783  0.0000
  O3     O3        0.737683765754037    0.226678986321263    0.017983162446364  0.0000
  O1     O1        0.770505726614091    0.735653518125761    0.025107005955392  0.0000
  O1     O1        0.256804576019377    0.255825993882244    0.920550196948940  0.0000
  O3     O3        0.238517370407900    0.691252315107123    0.887750792482327  0.0000
