data_c00398.vasp
_audit_creation_method             Generated by GULP
_audit_author_name                 Salvador R. G. Balestra
_symmetry_space_group_name_H-M     'P 1             '
_symmetry_Int_Tables_number        1

loop_
_symmetry_equiv_pos_site_id
_symmetry_equiv_pos_as_xyz
_cell_length_a                       17.7081
_cell_length_b                        7.7953
_cell_length_c                       10.1561
_cell_angle_alpha                   88.1260
_cell_angle_beta                    90.0753
_cell_angle_gamma                   89.0069

loop_
_atom_site_label
_atom_site_type_symbol
_atom_site_fract_x
_atom_site_fract_y
_atom_site_fract_z
_atom_site_charge
  Ge     Ge        0.052090000000021    0.000000000000000    0.372269999999958  0.0000
  Ge     Ge        0.450745707440756    0.964487371130774    0.356468859331615  0.0000
  Ge     Ge        0.952883762030445    0.986430281111292    0.634466294276589  0.0000
  Ge     Ge        0.556915878608333    0.053221465544768    0.597832466684524  0.0000
  Ge     Ge        0.550018904554183    0.021025463056588    0.097234998723501  0.0000
  Ge     Ge        0.959275961818984    0.955955791687845    0.095327443575887  0.0000
  Ge     Ge        0.443976825231637    0.983814128476263    0.841211259123162  0.0000
  Ge     Ge        0.147023471968103    0.318701338024742    0.285761589753280  0.0000
  Ge     Ge        0.353485209100435    0.653104160409437    0.284106688920055  0.0000
  Ge     Ge        0.836955509415073    0.289106177792124    0.716528747668839  0.0000
  Ge     Ge        0.681351991026769    0.764922748148845    0.716916696121868  0.0000
  Ge     Ge        0.652937762037218    0.359117303577704    0.708865197765025  0.0000
  Ge     Ge        0.175351279797826    0.729793074953367    0.283843622083512  0.0000
  Ge     Ge        0.326342731273268    0.246630901868243    0.286727698119862  0.0000
  Ge     Ge        0.655185878778711    0.329069803092787    0.028901090308690  0.0000
  Ge     Ge        0.849679020686251    0.645132720914285    0.047557066507288  0.0000
  Ge     Ge        0.329916658353698    0.265003160601639    0.970913949844206  0.0000
  Ge     Ge        0.350916931161168    0.664512739018395    0.960903636670691  0.0000
  Ge     Ge        0.679596356120360    0.739737076429427    0.045177883264513  0.0000
  Ge     Ge        0.834243996933588    0.245269136652827    0.033340691814909  0.0000
  Si     Si        0.068109645937225    0.032196684490031    0.854741961110467  0.0000
  Si     Si        0.850525256650832    0.676507917944804    0.729023858853473  0.0000
  Si     Si        0.172162323897536    0.730175049365154    0.970931746074712  0.0000
  Si     Si        0.150250090706306    0.336411108767875    0.980008295761281  0.0000
  O1     O1        0.082718114146252    0.207728954755239    0.379514313456996  0.0000
  O1     O1        0.418371219562512    0.758736714609977    0.376091142945190  0.0000
  O1     O1        0.887265637682027    0.147090373252114    0.622493421508661  0.0000
  O1     O1        0.634661674669274    0.928813049019757    0.636739249122932  0.0000
  O3     O3        0.921933850895062    0.796453096396467    0.709247251558376  0.0000
  O1     O1        0.586408549817679    0.259098949937836    0.616127392421963  0.0000
  O1     O1        0.128316071844373    0.860108223618243    0.387500568472223  0.0000
  O1     O1        0.377655321619697    0.106106994362982    0.385403388908345  0.0000
  O1     O1        0.979334523815163    0.950839054000603    0.473762318707062  0.0000
  O1     O1        0.531247794317623    0.012440051639710    0.438263006849984  0.0000
  O1     O1        0.026640580927879    0.969287330790076    0.210337056503079  0.0000
  O1     O1        0.472683346745786    0.985395463238142    0.190231802538844  0.0000
  O3     O3        0.039424060167914    0.035863312212299    0.705257464230090  0.0000
  O1     O1        0.474955039791062    0.005465320359098    0.681625792492403  0.0000
  O1     O1        0.590989590798174    0.216142167797130    0.120558490846009  0.0000
  O1     O1        0.929110592240622    0.746013499191226    0.090373720789362  0.0000
  O1     O1        0.366399353136063    0.112339248900389    0.872438904725529  0.0000
  O2     O2        0.127365086784230    0.873804787244902    0.881391828257683  0.0000
  O1     O1        0.414178843505713    0.777176852332073    0.868611089039595  0.0000
  O2     O2        0.104185635808505    0.217895439728438    0.881193651163622  0.0000
  O1     O1        0.617694383988562    0.863058442539447    0.129576363056555  0.0000
  O1     O1        0.882707183967431    0.088603209753068    0.122059057026139  0.0000
  O1     O1        0.521279546167614    0.026469520595654    0.934207780013321  0.0000
  O3     O3        0.992955297626199    0.008186489262920    0.939476668184492  0.0000
  O1     O1        0.160285517034391    0.520450306055172    0.337707254952900  0.0000
  O1     O1        0.339464573726288    0.450444478091236    0.344362746245082  0.0000
  O3     O3        0.858055336620271    0.496578986221080    0.657154472279371  0.0000
  O1     O1        0.656736134668157    0.570322809541531    0.657116184848491  0.0000
  O1     O1        0.231802461237772    0.205642383974923    0.290954025280558  0.0000
  O1     O1        0.269771219298321    0.769998440091689    0.286207654213189  0.0000
  O1     O1        0.741399665375094    0.263840333528869    0.700451254418252  0.0000
  O3     O3        0.777253016337612    0.788958633683905    0.684514178336999  0.0000
  O3     O3        0.113097790428828    0.329624263846760    0.123362600727134  0.0000
  O1     O1        0.380774179127805    0.647319654917813    0.121369634730651  0.0000
  O1     O1        0.866916791312179    0.239530193136861    0.873453117182012  0.0000
  O1     O1        0.659987560796744    0.777980323776915    0.880650393709375  0.0000
  O3     O3        0.834552502330500    0.611697921178346    0.879615496521779  0.0000
  O1     O1        0.623232865374035    0.353018745441398    0.869361939874238  0.0000
  O3     O3        0.145549326179591    0.748837782671243    0.119895661845792  0.0000
  O1     O1        0.363066249496400    0.239585328068435    0.129095777824597  0.0000
  O1     O1        0.668925749207033    0.525771920335466    0.090595809575991  0.0000
  O1     O1        0.850024085888523    0.438052371181267    0.107732582560876  0.0000
  O1     O1        0.350506695979082    0.461722814293378    0.901524600461582  0.0000
  O2     O2        0.153122999742935    0.535530601071763    0.925258956707014  0.0000
  O1     O1        0.738821732585872    0.211196852802992    0.028294023485149  0.0000
  O1     O1        0.772453438351687    0.772092504599929    0.084775024033097  0.0000
  O3     O3        0.233507929480133    0.257085353468341    0.994073518029523  0.0000
  O3     O3        0.260921694217708    0.758598128756100    0.955844239253213  0.0000
