data_c00338.vasp
_audit_creation_method             Generated by GULP
_audit_author_name                 Salvador R. G. Balestra
_symmetry_space_group_name_H-M     'P 1             '
_symmetry_Int_Tables_number        1

loop_
_symmetry_equiv_pos_site_id
_symmetry_equiv_pos_as_xyz
_cell_length_a                       17.6172
_cell_length_b                        7.8031
_cell_length_c                       10.2531
_cell_angle_alpha                   90.2881
_cell_angle_beta                    90.4165
_cell_angle_gamma                   90.8148

loop_
_atom_site_label
_atom_site_type_symbol
_atom_site_fract_x
_atom_site_fract_y
_atom_site_fract_z
_atom_site_charge
  Ge     Ge        0.052090000000021    0.000000000000000    0.372269999999958  0.0000
  Ge     Ge        0.437298748370544    0.050540174617587    0.359760344174371  0.0000
  Ge     Ge        0.945419696213278    0.049870765235583    0.621116445936473  0.0000
  Ge     Ge        0.542908619215482    0.005852892115962    0.612717945318817  0.0000
  Ge     Ge        0.549078536104568    0.006846868061700    0.119381075581559  0.0000
  Ge     Ge        0.937286374685901    0.061681236066531    0.129830065757714  0.0000
  Ge     Ge        0.440659441679355    0.055369434115887    0.869946413802601  0.0000
  Ge     Ge        0.167176566843952    0.293021981760688    0.260308000169394  0.0000
  Ge     Ge        0.320110848310344    0.755843624235779    0.252481725943610  0.0000
  Ge     Ge        0.847541095164323    0.366986716570154    0.695286158046192  0.0000
  Ge     Ge        0.641344317810685    0.691608903894419    0.685330517408584  0.0000
  Ge     Ge        0.819899708033559    0.772672626055813    0.691288313988810  0.0000
  Ge     Ge        0.667504727826612    0.284725003788045    0.692837659475248  0.0000
  Ge     Ge        0.665679047992138    0.299541452724916    0.007361255995942  0.0000
  Ge     Ge        0.816969499383918    0.779926949854325    0.008989950976403  0.0000
  Ge     Ge        0.335006929746511    0.362351885331624    0.931810002303608  0.0000
  Ge     Ge        0.137695468811665    0.688361936111711    0.943846821409009  0.0000
  Ge     Ge        0.316511243270508    0.768490267042453    0.937946465027180  0.0000
  Ge     Ge        0.156634987080130    0.280379615159975    0.945173346585366  0.0000
  Ge     Ge        0.846895087339041    0.377484312572904    0.012260166728163  0.0000
  Si     Si        0.037003110760549    0.993208778454601    0.880591020368403  0.0000
  Si     Si        0.142633592778481    0.687206290854476    0.254409117716367  0.0000
  Si     Si        0.343773585159215    0.362006393997678    0.244622672289306  0.0000
  Si     Si        0.640633358502500    0.698618075024563    0.996518199315246  0.0000
  O1     O1        0.123844284034780    0.148961759389351    0.360206393859411  0.0000
  O1     O1        0.365270533517824    0.901552900848027    0.350905592455846  0.0000
  O1     O1        0.912124464802429    0.254136603160247    0.605349012267605  0.0000
  O1     O1        0.575067328454320    0.799728404207773    0.595999092368671  0.0000
  O1     O1        0.871551372931813    0.907526167059209    0.594642228096022  0.0000
  O1     O1        0.618066197104881    0.146260973528080    0.593410324043735  0.0000
  O3     O3        0.082056425029185    0.796360380995781    0.333772298771582  0.0000
  O3     O3        0.408597928643169    0.252820517936190    0.313870730164168  0.0000
  O1     O1        0.023403881421958    0.004479869395674    0.532470157191257  0.0000
  O1     O1        0.465797558325402    0.055551348418804    0.521052777027458  0.0000
  O1     O1        0.971373305892259    0.049397180517767    0.286357297582496  0.0000
  O1     O1        0.517727539250287    0.994196427189756    0.277670155628331  0.0000
  O3     O3        0.967140764735075    0.026451192811017    0.786963734102230  0.0000
  O1     O1        0.516615851733507    0.022500032702333    0.774835345914007  0.0000
  O1     O1        0.618984479399687    0.161245896273104    0.108839542895562  0.0000
  O1     O1        0.858335271611609    0.933224308249118    0.106243933772930  0.0000
  O1     O1        0.400893684935527    0.254035281039634    0.845784562383192  0.0000
  O3     O3        0.070619395007749    0.803808943791694    0.859837411560050  0.0000
  O1     O1        0.369300476389802    0.904487544296736    0.845268973998677  0.0000
  O3     O3        0.102610065353328    0.136074641489358    0.856072677565775  0.0000
  O3     O3        0.578469267718861    0.803890239204728    0.074671912606267  0.0000
  O1     O1        0.912702432223575    0.270113760299190    0.102545482866935  0.0000
  O1     O1        0.470192391032123    0.056981397137909    0.030347879609881  0.0000
  O3     O3        0.011044432260728    0.000084138216353    0.030910908713798  0.0000
  O3     O3        0.152073656091453    0.500065778836993    0.316676713055747  0.0000
  O3     O3        0.337604383206857    0.550070183530317    0.308438723715145  0.0000
  O1     O1        0.832920479055452    0.566122104196328    0.634228353911115  0.0000
  O1     O1        0.653892705111998    0.488262170785036    0.630954182667161  0.0000
  O3     O3        0.263990719063034    0.259110740091696    0.257610426283884  0.0000
  O3     O3        0.223038592679585    0.788286338649953    0.255207562453301  0.0000
  O1     O1        0.763234459997753    0.249770511432276    0.696231521907036  0.0000
  O1     O1        0.724435266979274    0.810647689687092    0.681245762105118  0.0000
  O1     O1        0.130792657539377    0.264167506299978    0.106387897404354  0.0000
  O1     O1        0.350396229743140    0.786454199855335    0.095993476764159  0.0000
  O1     O1        0.877804329964958    0.389824390547933    0.854085916779875  0.0000
  O3     O3        0.613975487766685    0.674130156960876    0.847424996656199  0.0000
  O1     O1        0.848880227446534    0.790833705702257    0.851748423840240  0.0000
  O1     O1        0.633882610056180    0.269172893675290    0.850352557670530  0.0000
  O3     O3        0.114537634431233    0.659529569219651    0.106547448988969  0.0000
  O3     O3        0.362090420233002    0.392475218088842    0.093799043203932  0.0000
  O3     O3        0.651845844584938    0.511052275796846    0.056814636562876  0.0000
  O1     O1        0.836665595672538    0.581179805413307    0.071602919199945  0.0000
  O1     O1        0.323529882394340    0.564065283404407    0.874019252692949  0.0000
  O1     O1        0.143389073574088    0.484633046055529    0.884405473694281  0.0000
  O1     O1        0.761501197466278    0.266939935247551    0.013845550117962  0.0000
  O3     O3        0.719437664707454    0.806441295239718    0.002898241230765  0.0000
  O1     O1        0.251793964898652    0.243203538791655    0.931297496792952  0.0000
  O1     O1        0.220711524408566    0.805724065840131    0.936973877478095  0.0000
