data_c00335.vasp
_audit_creation_method             Generated by GULP
_audit_author_name                 Salvador R. G. Balestra
_symmetry_space_group_name_H-M     'P 1             '
_symmetry_Int_Tables_number        1

loop_
_symmetry_equiv_pos_site_id
_symmetry_equiv_pos_as_xyz
_cell_length_a                       17.7914
_cell_length_b                        7.8263
_cell_length_c                       10.4456
_cell_angle_alpha                   90.9967
_cell_angle_beta                    90.1991
_cell_angle_gamma                   89.2907

loop_
_atom_site_label
_atom_site_type_symbol
_atom_site_fract_x
_atom_site_fract_y
_atom_site_fract_z
_atom_site_charge
  Ge     Ge        0.052090000000021    0.000000000000000    0.372269999999958  0.0000
  Ge     Ge        0.447669170708070    0.023196005270913    0.331458365157141  0.0000
  Ge     Ge        0.950087651053304    0.975426687726626    0.628219604715809  0.0000
  Ge     Ge        0.546777621332517    0.020541769357942    0.589975001524269  0.0000
  Ge     Ge        0.549106353069240    0.011232763629043    0.072244203597307  0.0000
  Ge     Ge        0.941584309500940    0.975064819400533    0.129114809850827  0.0000
  Ge     Ge        0.435819007570103    0.001227203478094    0.831107820997239  0.0000
  Ge     Ge        0.165301978530388    0.289896429759345    0.266081716609743  0.0000
  Ge     Ge        0.326559982996984    0.742406551157740    0.252650167229422  0.0000
  Ge     Ge        0.826113153431572    0.258717933183925    0.696295189258839  0.0000
  Ge     Ge        0.669461278167786    0.736321107094922    0.707225869147329  0.0000
  Ge     Ge        0.848165830506471    0.667225539508312    0.707520738777462  0.0000
  Ge     Ge        0.648072546884901    0.327668677994357    0.697577729956151  0.0000
  Ge     Ge        0.344186825465747    0.333517439950105    0.262418194410158  0.0000
  Ge     Ge        0.849663450726536    0.657402050937933    0.021525651796836  0.0000
  Ge     Ge        0.143992389608872    0.670811161620725    0.947180437061648  0.0000
  Ge     Ge        0.323663731738918    0.714182753813937    0.943181934938248  0.0000
  Ge     Ge        0.160959684794932    0.265542281996091    0.956862138189484  0.0000
  Ge     Ge        0.669026447738225    0.719501911828046    0.017986245273742  0.0000
  Ge     Ge        0.823705218705975    0.252884831590372    0.007516182700382  0.0000
  Si     Si        0.045523861611499    0.985207932427984    0.884297200184811  0.0000
  Si     Si        0.151039518914865    0.690406713756446    0.252365261729801  0.0000
  Si     Si        0.647457139816769    0.322195280764935    0.002546723558117  0.0000
  Si     Si        0.338188805310438    0.310230224042308    0.957015366006400  0.0000
  O1     O1        0.112447038803476    0.167514672539606    0.364294843692555  0.0000
  O1     O1        0.374905903005748    0.880958787303355    0.347563782041953  0.0000
  O1     O1        0.879928554700760    0.124424514305672    0.602639275538164  0.0000
  O1     O1        0.617695267765523    0.876755559829575    0.618980237010015  0.0000
  O1     O1        0.911932784400873    0.775995077760002    0.618511537070260  0.0000
  O1     O1        0.579970963520489    0.223744907011635    0.613117133293351  0.0000
  O3     O3        0.092346444439948    0.804964949658328    0.331351557438911  0.0000
  O1     O1        0.409496081504325    0.225024699774086    0.350043038958992  0.0000
  O1     O1        0.024748975576291    0.992924066078885    0.529290620823237  0.0000
  O1     O1        0.521422037740246    0.991769836294054    0.431342922202160  0.0000
  O1     O1        0.972485518431164    0.023025526707768    0.280549031724556  0.0000
  O1     O1        0.476063311841114    0.998452554556127    0.174775109778746  0.0000
  O3     O3        0.979626208746587    0.015590610913257    0.784977118491063  0.0000
  O1     O1        0.465342799346622    0.998105076228387    0.674875439837677  0.0000
  O3     O3        0.589513419460481    0.212292197923503    0.082459305341548  0.0000
  O1     O1        0.914254663746581    0.766360879971221    0.112070424440402  0.0000
  O3     O3        0.394170870123243    0.195550510505425    0.871966621407368  0.0000
  O3     O3        0.077408969855383    0.791949807046567    0.868495097548775  0.0000
  O1     O1        0.374341845706278    0.835118192112381    0.841864138792470  0.0000
  O3     O3        0.114369272514034    0.115023966612135    0.866004936321970  0.0000
  O1     O1        0.615827850812529    0.857470126880738    0.108489441871832  0.0000
  O1     O1        0.863147374257810    0.098124869147817    0.098510788198324  0.0000
  O1     O1        0.515680989445942    0.973241586540356    0.920036970464997  0.0000
  O3     O3        0.014639434068005    0.021032707335352    0.027145292587807  0.0000
  O3     O3        0.160507452209217    0.504521464890025    0.313071509212637  0.0000
  O1     O1        0.340756865184772    0.541200710059598    0.312117487077727  0.0000
  O1     O1        0.836906089092088    0.465921047059723    0.646416431118364  0.0000
  O1     O1        0.658258270237454    0.531660742586380    0.645936846787660  0.0000
  O1     O1        0.258562116048076    0.235590377762059    0.275539425685060  0.0000
  O3     O3        0.230686322488269    0.786237847170720    0.250513799041480  0.0000
  O1     O1        0.731789293139040    0.216086121395499    0.684984502367794  0.0000
  O1     O1        0.763850662433204    0.779106001749630    0.704890698183755  0.0000
  O1     O1        0.132099056997920    0.261616987280356    0.113286442535527  0.0000
  O1     O1        0.356071019262097    0.749723483082128    0.095958181896225  0.0000
  O1     O1        0.855287104055300    0.243386129998442    0.852858896612997  0.0000
  O1     O1        0.639661644925083    0.745200414105417    0.862636680886998  0.0000
  O1     O1        0.877637016250907    0.657283588802073    0.864165891688380  0.0000
  O3     O3        0.619558378037297    0.338397458893528    0.856465343447272  0.0000
  O3     O3        0.120999270286181    0.665418415335400    0.108211946494821  0.0000
  O3     O3        0.369105510743630    0.325486674353197    0.101197722331067  0.0000
  O3     O3        0.656015003529386    0.509332931022801    0.064877316344815  0.0000
  O1     O1        0.843702440857828    0.451175175282941    0.072017456147037  0.0000
  O3     O3        0.330549866021276    0.498875271841484    0.900442539397429  0.0000
  O1     O1        0.143777140000832    0.463697714522838    0.892788428558763  0.0000
  O3     O3        0.727528056122885    0.223815444327513    0.000129241385253  0.0000
  O1     O1        0.762972847154737    0.757703335253245    0.031281121974232  0.0000
  O3     O3        0.256578214241571    0.222612033822828    0.957603772263718  0.0000
  O1     O1        0.229796363025377    0.764000959449962    0.931957829492783  0.0000
