data_c00379.vasp
_audit_creation_method             Generated by GULP
_audit_author_name                 Salvador R. G. Balestra
_symmetry_space_group_name_H-M     'P 1             '
_symmetry_Int_Tables_number        1

loop_
_symmetry_equiv_pos_site_id
_symmetry_equiv_pos_as_xyz
_cell_length_a                       17.6515
_cell_length_b                        7.8198
_cell_length_c                       10.2590
_cell_angle_alpha                   90.7706
_cell_angle_beta                    91.2007
_cell_angle_gamma                   88.7984

loop_
_atom_site_label
_atom_site_type_symbol
_atom_site_fract_x
_atom_site_fract_y
_atom_site_fract_z
_atom_site_charge
  Ge     Ge        0.052090000000021    0.000000000000000    0.372269999999958  0.0000
  Ge     Ge        0.444910992001498    0.964028332657820    0.322051884815149  0.0000
  Ge     Ge        0.945666870453546    0.945569329994179    0.621260770877249  0.0000
  Ge     Ge        0.548747403514848    0.003106558826511    0.579684831488514  0.0000
  Ge     Ge        0.547641164494235    0.017106661246699    0.068595553400297  0.0000
  Ge     Ge        0.942807668732941    0.953871831257080    0.119370959898314  0.0000
  Ge     Ge        0.438600465527290    0.950257944577077    0.817871675117167  0.0000
  Ge     Ge        0.145390919076118    0.315334257203977    0.257681429948882  0.0000
  Ge     Ge        0.352136892733919    0.639658319482423    0.252300353191196  0.0000
  Ge     Ge        0.822209921603917    0.229622757416806    0.694488226366154  0.0000
  Ge     Ge        0.666847906371719    0.706002693931133    0.685789348737013  0.0000
  Ge     Ge        0.846827610121542    0.632354239148548    0.685428539914016  0.0000
  Ge     Ge        0.170798316468430    0.714761563554835    0.260262744713397  0.0000
  Ge     Ge        0.647427252067099    0.330393712662549    0.013466562945428  0.0000
  Ge     Ge        0.318060994234035    0.238107669827642    0.940725456434746  0.0000
  Ge     Ge        0.162784849361057    0.720566718285079    0.945252015661138  0.0000
  Ge     Ge        0.344492679467274    0.644653003453569    0.938569153180987  0.0000
  Ge     Ge        0.138928122056386    0.317677603521630    0.940082378685640  0.0000
  Ge     Ge        0.671074342502052    0.730581476344509    0.000861928241462  0.0000
  Ge     Ge        0.825616082595555    0.249481062687055    0.011395623278466  0.0000
  Si     Si        0.044001773095399    0.006604335612272    0.875718982426171  0.0000
  Si     Si        0.646344460794054    0.309818056656145    0.699819480442756  0.0000
  Si     Si        0.323137034138682    0.244339821153268    0.251016854422821  0.0000
  Si     Si        0.847216609350470    0.648557275296106    0.996255034912526  0.0000
  O1     O1        0.080640663806254    0.203540423696908    0.341249785693809  0.0000
  O1     O1        0.413279757073865    0.760217863831381    0.345847046976052  0.0000
  O1     O1        0.868788897918483    0.082549853713238    0.600121347669750  0.0000
  O1     O1        0.615341575832154    0.841303265928010    0.587329705811342  0.0000
  O1     O1        0.913251754042859    0.741259614633142    0.602125537726904  0.0000
  O3     O3        0.582043312026021    0.200889679499733    0.627661908108517  0.0000
  O1     O1        0.128867406258809    0.865474090480393    0.358157227122370  0.0000
  O3     O3        0.369363033797723    0.108772988328716    0.337963429711723  0.0000
  O1     O1        0.020959358272035    0.992158224808411    0.530223953756569  0.0000
  O1     O1        0.520455527695514    0.016880451424840    0.417827575036509  0.0000
  O1     O1        0.975810589198528    0.939869183823841    0.277177263684117  0.0000
  O1     O1        0.473569551127801    0.970031349944846    0.162020525625464  0.0000
  O3     O3        0.972430586636975    0.967836796621024    0.785216910265865  0.0000
  O1     O1        0.467055558255206    0.958684187610884    0.658967199199471  0.0000
  O1     O1        0.578867614325589    0.223013958427651    0.091188162345525  0.0000
  O3     O3        0.908612663657126    0.754574444183357    0.077844797683177  0.0000
  O1     O1        0.364748575177546    0.090915935489861    0.847643490231458  0.0000
  O3     O3        0.111778013466722    0.868141432660133    0.853611768088125  0.0000
  O1     O1        0.407701812205509    0.747230356711492    0.844992870866460  0.0000
  O3     O3        0.073935814205089    0.196829372371949    0.852213398333880  0.0000
  O1     O1        0.625348230208725    0.881929074850968    0.091726249972158  0.0000
  O1     O1        0.876102604492619    0.116047346293685    0.112478113291120  0.0000
  O1     O1        0.517850543579190    0.999035492706957    0.908138963191621  0.0000
  O3     O3        0.019977819021135    0.999538612412504    0.026738976047337  0.0000
  O1     O1        0.155069417031579    0.515792352374342    0.323358170023926  0.0000
  O3     O3        0.340331575945172    0.434498825755865    0.307155804820607  0.0000
  O1     O1        0.839624133825038    0.427215943427595    0.630365569578709  0.0000
  O3     O3        0.655606703075230    0.493980881533467    0.634795900123834  0.0000
  O3     O3        0.233725911661232    0.211330381377141    0.255365486096784  0.0000
  O1     O1        0.265909701367332    0.745701950791437    0.252229771927583  0.0000
  O3     O3        0.725012926771580    0.200775881198953    0.693433902029877  0.0000
  O1     O1        0.761868224722905    0.743331224457137    0.674920564761850  0.0000
  O1     O1        0.113677023741872    0.339929897670803    0.100178905080570  0.0000
  O1     O1        0.381979852229999    0.634381789719020    0.094391389676533  0.0000
  O1     O1        0.853335803013585    0.214699280496068    0.854118283841992  0.0000
  O1     O1        0.637358676563008    0.741065290967239    0.842187526564272  0.0000
  O3     O3        0.873557364974829    0.619251670388187    0.849026061216185  0.0000
  O3     O3        0.625137892170753    0.348641526766423    0.848338564729759  0.0000
  O1     O1        0.133751408745882    0.729312839055847    0.104061161729905  0.0000
  O3     O3        0.350614222279261    0.231994297862248    0.101778966874771  0.0000
  O1     O1        0.653993218445942    0.535334174042693    0.069547559608330  0.0000
  O3     O3        0.836378176342358    0.463319390558290    0.057761478736517  0.0000
  O1     O1        0.331402908803854    0.440205589737484    0.882065619374025  0.0000
  O1     O1        0.146765530629523    0.518534912028986    0.879856647441370  0.0000
  O1     O1        0.730780722845855    0.214064929424468    0.026162769787245  0.0000
  O3     O3        0.768173217909693    0.756938080327746    0.996326823191244  0.0000
  O1     O1        0.223047707315767    0.202732226680389    0.936296800828489  0.0000
  O1     O1        0.258373181612502    0.753813675476088    0.940126903929762  0.0000
