data_c00326.vasp
_audit_creation_method             Generated by GULP
_audit_author_name                 Salvador R. G. Balestra
_symmetry_space_group_name_H-M     'P 1             '
_symmetry_Int_Tables_number        1

loop_
_symmetry_equiv_pos_site_id
_symmetry_equiv_pos_as_xyz
_cell_length_a                       17.5599
_cell_length_b                        7.8193
_cell_length_c                       10.3309
_cell_angle_alpha                   91.0571
_cell_angle_beta                    89.7459
_cell_angle_gamma                   88.4887

loop_
_atom_site_label
_atom_site_type_symbol
_atom_site_fract_x
_atom_site_fract_y
_atom_site_fract_z
_atom_site_charge
  Ge     Ge        0.052090000000021    0.000000000000000    0.372269999999958  0.0000
  Ge     Ge        0.443625624185408    0.954664893732002    0.376715654122120  0.0000
  Ge     Ge        0.955400784812250    0.946456223406265    0.632976287202577  0.0000
  Ge     Ge        0.549791192851949    0.002738342345888    0.627183424480187  0.0000
  Ge     Ge        0.551993448839251    0.011306250262433    0.131476722466198  0.0000
  Ge     Ge        0.939718811924598    0.946861892436417    0.132316664353757  0.0000
  Ge     Ge        0.447678756147487    0.933622408330305    0.882095554244858  0.0000
  Ge     Ge        0.140969647130256    0.320190702127258    0.262352785463397  0.0000
  Ge     Ge        0.348468023296844    0.639446138753797    0.256156591104210  0.0000
  Ge     Ge        0.828772002040363    0.229209390851173    0.704463431963456  0.0000
  Ge     Ge        0.674873973218648    0.721325626102163    0.701169179855406  0.0000
  Ge     Ge        0.854744726949681    0.635647404586426    0.706212915366472  0.0000
  Ge     Ge        0.648699176166811    0.317552380366895    0.696855723312017  0.0000
  Ge     Ge        0.322601904030686    0.239562307024822    0.268174118012163  0.0000
  Ge     Ge        0.642337717800997    0.324449218364395    0.013469331831045  0.0000
  Ge     Ge        0.324405020676441    0.225836513450377    0.956001636444878  0.0000
  Ge     Ge        0.164226131994675    0.696414427480664    0.950167305431928  0.0000
  Ge     Ge        0.345579854373213    0.624305640233048    0.936548957627042  0.0000
  Ge     Ge        0.672364204723897    0.724758679981678    0.015305062354707  0.0000
  Ge     Ge        0.823857133500307    0.240642258056621    0.018348522477371  0.0000
  Si     Si        0.048912021672255    0.994899348681852    0.891841495831998  0.0000
  Si     Si        0.170327571344469    0.714232396198583    0.258809849931985  0.0000
  Si     Si        0.849889856296690    0.637796225169394    0.012805873841647  0.0000
  Si     Si        0.144768801225074    0.302188201180667    0.959197544212109  0.0000
  O1     O1        0.074825416064272    0.209247536694720    0.345945832197534  0.0000
  O1     O1        0.416314868827085    0.752025476480275    0.335507821914175  0.0000
  O1     O1        0.880554040066534    0.088798371880046    0.608586400081960  0.0000
  O1     O1        0.624408948155846    0.857936642395884    0.604836390172129  0.0000
  O1     O1        0.922737871200648    0.741682014115423    0.622823999242557  0.0000
  O1     O1        0.583462712202573    0.204915928054697    0.608630145260236  0.0000
  O3     O3        0.128971398190879    0.864024879560070    0.340931335848689  0.0000
  O1     O1        0.367427111356659    0.092861000732099    0.363751812081639  0.0000
  O1     O1        0.030267346635901    0.978834477795070    0.533693172107271  0.0000
  O1     O1        0.472512026700809    0.957710389662057    0.536036836013118  0.0000
  O1     O1        0.971844790487457    0.946234895078300    0.288727315519320  0.0000
  O1     O1        0.522232937229085    0.012718581136683    0.290055663136809  0.0000
  O3     O3        0.980353244515121    0.984490836283155    0.793925264918322  0.0000
  O1     O1        0.521837324785271    0.986529183730645    0.787883442208575  0.0000
  O1     O1        0.572925460812044    0.217715468864031    0.092517881453430  0.0000
  O3     O3        0.908611807719082    0.743129361814898    0.098483237653780  0.0000
  O1     O1        0.369829499391340    0.071465766724146    0.865693807646901  0.0000
  O3     O3        0.108461008435218    0.837158482171036    0.863872396073701  0.0000
  O1     O1        0.412419066679157    0.733096839013147    0.852784166076730  0.0000
  O2     O2        0.091361579285287    0.176078063101234    0.875967818171635  0.0000
  O1     O1        0.632341480976866    0.882600552209634    0.110964593438008  0.0000
  O1     O1        0.869633530347077    0.101770959248675    0.119388904891087  0.0000
  O1     O1        0.478271039593979    0.936498416110077    0.040676034690995  0.0000
  O3     O3        0.018322943771522    0.989144519243197    0.038286215290874  0.0000
  O3     O3        0.152489868309487    0.528862956981655    0.317447881046898  0.0000
  O1     O1        0.341271814781406    0.442864958089056    0.323899034785961  0.0000
  O1     O1        0.842798106241217    0.433334224895773    0.648348908629049  0.0000
  O1     O1        0.662755933027332    0.516579673380672    0.639078501199107  0.0000
  O1     O1        0.226426691552864    0.211495104082271    0.273753839099235  0.0000
  O3     O3        0.260173549327071    0.745824940785057    0.261047558406547  0.0000
  O1     O1        0.732570435727649    0.197010230182840    0.698068894353865  0.0000
  O1     O1        0.770934326178062    0.755486367076313    0.699430779736983  0.0000
  O3     O3        0.111496002105673    0.330756214400652    0.103128879979713  0.0000
  O1     O1        0.371907866875469    0.611443227281110    0.096611684632033  0.0000
  O1     O1        0.856641667813305    0.210605063781029    0.863479230589121  0.0000
  O1     O1        0.641022762924696    0.740345002753435    0.858179509379210  0.0000
  O3     O3        0.881467575634464    0.616930164152865    0.867143625211910  0.0000
  O1     O1        0.617541717356978    0.343758879078667    0.854048430914987  0.0000
  O3     O3        0.140198591219172    0.716842456035017    0.111916952943156  0.0000
  O1     O1        0.357536726347113    0.214211831693644    0.112570898372647  0.0000
  O1     O1        0.650322083540265    0.528401377025223    0.075473909507501  0.0000
  O3     O3        0.837257763010592    0.451580555216739    0.069996028983915  0.0000
  O1     O1        0.340695677292213    0.417643608036694    0.882850024029161  0.0000
  O3     O3        0.150574901019550    0.486484189775482    0.895251065203795  0.0000
  O1     O1        0.727531350874916    0.211292414087780    0.023517287971022  0.0000
  O3     O3        0.770194445996720    0.745043312812287    0.009827895983345  0.0000
  O3     O3        0.226889501848103    0.207600429772600    0.970177582111936  0.0000
  O1     O1        0.258685128386114    0.732448201154106    0.927808846758967  0.0000
