data_c00383.vasp
_audit_creation_method             Generated by GULP
_audit_author_name                 Salvador R. G. Balestra
_symmetry_space_group_name_H-M     'P 1             '
_symmetry_Int_Tables_number        1

loop_
_symmetry_equiv_pos_site_id
_symmetry_equiv_pos_as_xyz
_cell_length_a                       17.6262
_cell_length_b                        7.8553
_cell_length_c                       10.2409
_cell_angle_alpha                   91.1583
_cell_angle_beta                    90.9025
_cell_angle_gamma                   91.5934

loop_
_atom_site_label
_atom_site_type_symbol
_atom_site_fract_x
_atom_site_fract_y
_atom_site_fract_z
_atom_site_charge
  Ge     Ge        0.052090000000021    0.000000000000000    0.372269999999958  0.0000
  Ge     Ge        0.443078899948006    0.055002162732055    0.363656767948180  0.0000
  Ge     Ge        0.947109244779977    0.035252883735976    0.623402422134163  0.0000
  Ge     Ge        0.547770878943292    0.992008728432396    0.617963586372541  0.0000
  Ge     Ge        0.545221997480575    0.983723196584884    0.114239215259342  0.0000
  Ge     Ge        0.937065244175964    0.042270923851952    0.128607906557144  0.0000
  Ge     Ge        0.437452008769679    0.031626033480602    0.864594363190644  0.0000
  Ge     Ge        0.166697212715177    0.298085916893050    0.261133412925725  0.0000
  Ge     Ge        0.321673833148309    0.762718779214715    0.245150309021891  0.0000
  Ge     Ge        0.846327591956134    0.349521449669282    0.686792075024012  0.0000
  Ge     Ge        0.641715343009594    0.671981614201764    0.684979717216398  0.0000
  Ge     Ge        0.823770418806721    0.749623360078779    0.693636445783353  0.0000
  Ge     Ge        0.347891917419648    0.362912508419404    0.252092319972368  0.0000
  Ge     Ge        0.667275857127854    0.268960036288121    0.995483847248915  0.0000
  Ge     Ge        0.818027379852784    0.753735029810275    0.009824486312405  0.0000
  Ge     Ge        0.333390979968358    0.339334807368624    0.932539314603249  0.0000
  Ge     Ge        0.136131262818870    0.674608697608759    0.943037072500408  0.0000
  Ge     Ge        0.317747475853746    0.738931638686671    0.928411930145431  0.0000
  Ge     Ge        0.636080296978524    0.669631240439808    0.998968282119543  0.0000
  Ge     Ge        0.847308729358174    0.352404584720366    0.005979161304444  0.0000
  Si     Si        0.040217008854286    0.983104609312562    0.885064133497698  0.0000
  Si     Si        0.668521887867516    0.278944774955113    0.683786478682088  0.0000
  Si     Si        0.143776941582899    0.692471014843644    0.250717477666879  0.0000
  Si     Si        0.154868392116498    0.278150314327501    0.952249971589666  0.0000
  O1     O1        0.118639292580280    0.161069109660319    0.358522724228505  0.0000
  O1     O1        0.364814562622461    0.924608770219067    0.333015902855377  0.0000
  O1     O1        0.909504842287460    0.232124572180270    0.600818401824581  0.0000
  O1     O1        0.581967941542437    0.791638522590775    0.591896481076530  0.0000
  O1     O1        0.873624735231797    0.889090088191051    0.600024770800311  0.0000
  O3     O3        0.620975626480949    0.141389726940817    0.596404051401986  0.0000
  O3     O3        0.087047780467216    0.801774047196468    0.336335155486683  0.0000
  O1     O1        0.417296635462120    0.260175978182051    0.335442382697114  0.0000
  O1     O1        0.024623312463786    0.997684100516723    0.533071579452327  0.0000
  O1     O1        0.470152258155913    0.034352424884584    0.524596177111675  0.0000
  O1     O1        0.970364977742273    0.038090379097918    0.286551067260989  0.0000
  O1     O1        0.521035018517678    0.000540070959393    0.275759041301938  0.0000
  O3     O3        0.972249282934763    0.022120236027164    0.788596001085807  0.0000
  O1     O1        0.517446294496636    0.005999243600645    0.777578027529748  0.0000
  O1     O1        0.621593873031814    0.114883323780710    0.080386655346508  0.0000
  O1     O1        0.859867778362013    0.906495282870438    0.110196904851792  0.0000
  O1     O1        0.391263213633153    0.218842691575982    0.839520177162453  0.0000
  O3     O3        0.074029955123192    0.797113780149118    0.855403818479725  0.0000
  O1     O1        0.370173238364794    0.872306914141647    0.834228700648360  0.0000
  O2     O2        0.106165734535357    0.131589554674329    0.873325929025262  0.0000
  O1     O1        0.569568716860976    0.776038102809014    0.085831938475659  0.0000
  O1     O1        0.913191335560103    0.247087270121919    0.095048033357538  0.0000
  O1     O1        0.466195809988514    0.037018780973762    0.026729065524259  0.0000
  O3     O3        0.011153173564815    0.977498844521812    0.032637889118206  0.0000
  O3     O3        0.155302298416528    0.508344358644967    0.312271707087628  0.0000
  O1     O1        0.342313012402961    0.568795587496440    0.309710286700305  0.0000
  O1     O1        0.839053063839897    0.549070829941172    0.628341132357301  0.0000
  O3     O3        0.654347677419287    0.466602790657853    0.626991484644903  0.0000
  O1     O1        0.261208694727016    0.258693333206919    0.268527901941317  0.0000
  O3     O3        0.224661759851403    0.792218838978660    0.243668589831842  0.0000
  O3     O3        0.757671848645154    0.244152495594772    0.682698204689853  0.0000
  O1     O1        0.727864148134072    0.780036239529215    0.690912028085194  0.0000
  O3     O3        0.130847654294226    0.274490024757580    0.103174620944225  0.0000
  O1     O1        0.351917226245436    0.762952023088561    0.086689939478511  0.0000
  O1     O1        0.875606322940254    0.367603631241981    0.847194223018584  0.0000
  O1     O1        0.605361019363850    0.661039236248878    0.838696434853615  0.0000
  O1     O1        0.853301188931832    0.766636741790521    0.854662233246386  0.0000
  O3     O3        0.639289159314381    0.270307058001479    0.832153732598024  0.0000
  O3     O3        0.110104196697556    0.667736028059611    0.104828899646201  0.0000
  O1     O1        0.368811242864560    0.365555594444950    0.089028136176986  0.0000
  O1     O1        0.646566031899834    0.468277781266043    0.056754240755229  0.0000
  O1     O1        0.834862015850838    0.553342716374381    0.068123185770960  0.0000
  O1     O1        0.327214656328043    0.535549198236469    0.867032241762450  0.0000
  O3     O3        0.139028396156466    0.463038513789383    0.891607941882457  0.0000
  O1     O1        0.762493515449181    0.237556462169823    0.007361066554864  0.0000
  O1     O1        0.721864452549384    0.779606656887929    0.005038895180426  0.0000
  O3     O3        0.243708007491902    0.242163550660482    0.943632354485094  0.0000
  O1     O1        0.222539902800258    0.775251429613145    0.928019906383663  0.0000
