data_c00304.vasp
_audit_creation_method             Generated by GULP
_audit_author_name                 Salvador R. G. Balestra
_symmetry_space_group_name_H-M     'P 1             '
_symmetry_Int_Tables_number        1

loop_
_symmetry_equiv_pos_site_id
_symmetry_equiv_pos_as_xyz
_cell_length_a                       17.6162
_cell_length_b                        7.8215
_cell_length_c                       10.3423
_cell_angle_alpha                   89.6553
_cell_angle_beta                    91.0132
_cell_angle_gamma                   88.7825

loop_
_atom_site_label
_atom_site_type_symbol
_atom_site_fract_x
_atom_site_fract_y
_atom_site_fract_z
_atom_site_charge
  Ge     Ge        0.052090000000021    0.000000000000000    0.372269999999958  0.0000
  Ge     Ge        0.445220662102388    0.958180937504606    0.391570259802940  0.0000
  Ge     Ge        0.945957150648626    0.957111573798751    0.625360808961082  0.0000
  Ge     Ge        0.544567361628843    0.011098467042160    0.651740009998257  0.0000
  Ge     Ge        0.554424289167594    0.998317381525956    0.151920393315237  0.0000
  Ge     Ge        0.948526785432046    0.936973980285749    0.113559598051240  0.0000
  Ge     Ge        0.443067653964741    0.939233847235736    0.905587686079905  0.0000
  Ge     Ge        0.149982932525969    0.312422427573255    0.295980629944123  0.0000
  Ge     Ge        0.352764664405371    0.639624510263141    0.273520345273477  0.0000
  Ge     Ge        0.823042349079187    0.240839361754000    0.725300277058972  0.0000
  Ge     Ge        0.669885057212296    0.728575330674844    0.732319886212963  0.0000
  Ge     Ge        0.850100030739924    0.643202368130185    0.737981584524757  0.0000
  Ge     Ge        0.644109307448816    0.323029882068552    0.722357509240551  0.0000
  Ge     Ge        0.171483498491537    0.715223883952018    0.286523560394608  0.0000
  Ge     Ge        0.850544546530353    0.621004130538731    0.053135591223035  0.0000
  Ge     Ge        0.318857921820495    0.227268746060034    0.976958986147998  0.0000
  Ge     Ge        0.160884628373696    0.696188339195183    0.974435381783735  0.0000
  Ge     Ge        0.344050265037741    0.626150490037347    0.960545652049929  0.0000
  Ge     Ge        0.669999990856569    0.703633732885219    0.044486122047434  0.0000
  Ge     Ge        0.823001963843359    0.223010442367367    0.039422802913600  0.0000
  Si     Si        0.049671687388228    0.994306095598633    0.870087742524801  0.0000
  Si     Si        0.326373064298475    0.242950223509038    0.283307023023559  0.0000
  Si     Si        0.646178614598509    0.305757620071567    0.030581549677247  0.0000
  Si     Si        0.141004759487234    0.298198116817984    0.989154171809893  0.0000
  O1     O1        0.088991408123288    0.200527975454461    0.388737853513141  0.0000
  O1     O1        0.418325868348626    0.752899564108030    0.359619319461134  0.0000
  O1     O1        0.871272259823293    0.098945335554990    0.630370763758624  0.0000
  O1     O1        0.620275417956225    0.870266100819509    0.635613676929102  0.0000
  O1     O1        0.917977120689232    0.753877094096993    0.658313348493478  0.0000
  O1     O1        0.576532660850868    0.216191560160946    0.635929985350157  0.0000
  O1     O1        0.126150837544454    0.854513793868326    0.386753579972545  0.0000
  O3     O3        0.371253376415584    0.103677444485500    0.369464396477515  0.0000
  O1     O1        0.978173730327297    0.960093052846736    0.469010451455028  0.0000
  O1     O1        0.469719696265734    0.967178234803380    0.553466306385400  0.0000
  O1     O1        0.020977933311468    0.987419428406502    0.212930092161285  0.0000
  O1     O1        0.524829825687537    0.011914868334421    0.309275783513952  0.0000
  O3     O3        0.021955540847913    0.017274680611048    0.722530716403969  0.0000
  O1     O1        0.515765826618524    0.990995522492632    0.810242642848893  0.0000
  O3     O3        0.584881489341041    0.198837614785408    0.106946508800561  0.0000
  O1     O1        0.916516042867443    0.733108113570978    0.138995959950693  0.0000
  O1     O1        0.364608868616941    0.076059480659214    0.890814530833533  0.0000
  O3     O3        0.112711780638210    0.842792513393658    0.876876054549067  0.0000
  O1     O1        0.406727859238930    0.741181523958256    0.872475037901669  0.0000
  O2     O2        0.080349171414916    0.177457488059539    0.918107362873944  0.0000
  O1     O1        0.623658054009589    0.841252249603183    0.144925888635778  0.0000
  O1     O1        0.870089129719228    0.070817032643702    0.128889216968389  0.0000
  O1     O1        0.475508845937015    0.945203909111417    0.063533400517685  0.0000
  O3     O3        0.977391661484319    0.944941827885725    0.953370060394012  0.0000
  O1     O1        0.157894229363589    0.514266806275690    0.351340710805717  0.0000
  O3     O3        0.341477355002559    0.434178403176796    0.334379520456225  0.0000
  O1     O1        0.836196027361113    0.446441669435739    0.670359206223662  0.0000
  O1     O1        0.655191433921308    0.526781543817173    0.669654701081981  0.0000
  O3     O3        0.237272478899563    0.206238781426836    0.291366436357363  0.0000
  O1     O1        0.266836453310182    0.748391003846785    0.279476630230834  0.0000
  O1     O1        0.727358198446530    0.205038435314663    0.715984095326890  0.0000
  O1     O1        0.765890697011322    0.761379718481773    0.734419229033202  0.0000
  O3     O3        0.117207615693178    0.324730254885292    0.136432984414190  0.0000
  O1     O1        0.379724057093023    0.623587807613044    0.116979777907596  0.0000
  O1     O1        0.853968969556571    0.215487973513180    0.882859067511842  0.0000
  O1     O1        0.637396706441936    0.739642014971280    0.888868961033304  0.0000
  O1     O1        0.877745063168957    0.604695344264854    0.894578253013228  0.0000
  O3     O3        0.618364497923038    0.335933343011002    0.883634652657508  0.0000
  O1     O1        0.133566848705410    0.725871992229272    0.131084928201123  0.0000
  O3     O3        0.353180551123352    0.228257113119211    0.135461537174467  0.0000
  O3     O3        0.657218854483240    0.491818327195770    0.092277801499655  0.0000
  O1     O1        0.841126447358215    0.417851612245808    0.109839960276432  0.0000
  O1     O1        0.336051395438098    0.422445588979241    0.906446516884183  0.0000
  O3     O3        0.144106747086807    0.486097299254006    0.925628934085124  0.0000
  O3     O3        0.725414171452111    0.197571504705091    0.034341728482268  0.0000
  O1     O1        0.765603296960919    0.735037368504802    0.052389515991438  0.0000
  O3     O3        0.221994404016697    0.200381076989502    0.980899778399037  0.0000
  O1     O1        0.256098049048187    0.727142097636233    0.962789095850776  0.0000
