data_c00390.vasp
_audit_creation_method             Generated by GULP
_audit_author_name                 Salvador R. G. Balestra
_symmetry_space_group_name_H-M     'P 1             '
_symmetry_Int_Tables_number        1

loop_
_symmetry_equiv_pos_site_id
_symmetry_equiv_pos_as_xyz
_cell_length_a                       17.7014
_cell_length_b                        7.8696
_cell_length_c                       10.1674
_cell_angle_alpha                   89.3745
_cell_angle_beta                    90.6035
_cell_angle_gamma                   88.3354

loop_
_atom_site_label
_atom_site_type_symbol
_atom_site_fract_x
_atom_site_fract_y
_atom_site_fract_z
_atom_site_charge
  Ge     Ge        0.052090000000021    0.000000000000000    0.372269999999958  0.0000
  Ge     Ge        0.454161510068479    0.944246975274333    0.362594390908869  0.0000
  Ge     Ge        0.946392900112301    0.965058410297965    0.625591862127490  0.0000
  Ge     Ge        0.556247031984054    0.013955471181491    0.615175292798679  0.0000
  Ge     Ge        0.555482078862131    0.990954104028921    0.104062586649514  0.0000
  Ge     Ge        0.951927559193353    0.957610952218517    0.105835839943509  0.0000
  Ge     Ge        0.443902245494564    0.949025091488581    0.854031930859435  0.0000
  Ge     Ge        0.150213461756536    0.311077398698736    0.300334945875788  0.0000
  Ge     Ge        0.353789164844558    0.635169795557657    0.295007413547714  0.0000
  Ge     Ge        0.830427851290295    0.268700613289780    0.730251929508618  0.0000
  Ge     Ge        0.675133941710310    0.723270986633393    0.740355229961610  0.0000
  Ge     Ge        0.649800169946280    0.322218155309729    0.725279256677310  0.0000
  Ge     Ge        0.173908734324857    0.713110825764573    0.296381717405716  0.0000
  Ge     Ge        0.330060191671746    0.232674734771470    0.294229144450111  0.0000
  Ge     Ge        0.657635982894585    0.302142655733380    0.045531534471750  0.0000
  Ge     Ge        0.848157025438867    0.648787813229221    0.052502662493753  0.0000
  Ge     Ge        0.325708544970519    0.236102629834102    0.975038997694420  0.0000
  Ge     Ge        0.170782992143607    0.715188835830259    0.976672287688123  0.0000
  Ge     Ge        0.352177818985132    0.636863741886707    0.974503884890361  0.0000
  Ge     Ge        0.144391570869647    0.313920712251086    0.980809296654086  0.0000
  Si     Si        0.057267513374814    0.005494048366417    0.861516852378950  0.0000
  Si     Si        0.850845496445212    0.662927152817270    0.740853900252543  0.0000
  Si     Si        0.672318200398117    0.697611773279132    0.054035863432364  0.0000
  Si     Si        0.834127948361666    0.254291835363432    0.043602547691362  0.0000
  O1     O1        0.088461069335781    0.198198472361831    0.393074958031608  0.0000
  O1     O1        0.418248383619077    0.745585803124404    0.384496995203036  0.0000
  O1     O1        0.879892631630615    0.125031225272157    0.638954665049483  0.0000
  O1     O1        0.634513762177849    0.890071367164814    0.656631296031612  0.0000
  O3     O3        0.910443181477413    0.768745678995485    0.659436255397340  0.0000
  O1     O1        0.582320290815804    0.220423408667558    0.636509003687338  0.0000
  O1     O1        0.124199933954798    0.850133026785616    0.393753551175255  0.0000
  O1     O1        0.382567211052021    0.092928865639032    0.389270891639238  0.0000
  O1     O1        0.974844508580563    0.962545942758339    0.464322931829118  0.0000
  O1     O1        0.533499734214494    0.980666193534516    0.452467916027848  0.0000
  O1     O1        0.025763776193071    0.988524344875599    0.207883624367522  0.0000
  O1     O1        0.478520082304873    0.963137141027089    0.198752087251105  0.0000
  O3     O3        0.029303079684988    0.002542322670141    0.710918064992973  0.0000
  O1     O1        0.474808209379276    0.962517500818240    0.694435955674843  0.0000
  O1     O1        0.598435743051208    0.180828294443719    0.134997656256627  0.0000
  O1     O1        0.910245868291126    0.765920860967228    0.138624499496585  0.0000
  O1     O1        0.369543114697045    0.088326237719615    0.877930451286817  0.0000
  O3     O3        0.127090044322675    0.874026804374866    0.882555364166731  0.0000
  O1     O1        0.416546376324219    0.745203130433546    0.884656455859459  0.0000
  O3     O3        0.079233642045756    0.196797365124671    0.896086835731228  0.0000
  O3     O3        0.622474177287982    0.829017016598845    0.136672663649632  0.0000
  O3     O3        0.882402229029148    0.114987463516436    0.124980811058281  0.0000
  O1     O1        0.523147748584637    0.994566725595666    0.944090417016293  0.0000
  O3     O3        0.985207648630895    0.952497475039880    0.946370245086991  0.0000
  O1     O1        0.163340717372503    0.510021633074326    0.358942904492543  0.0000
  O1     O1        0.342587543200901    0.434621071823998    0.354801176225835  0.0000
  O3     O3        0.872991486862440    0.464360760414070    0.730300746072809  0.0000
  O1     O1        0.628684176450159    0.537201627467789    0.718759192039616  0.0000
  O1     O1        0.235106838030512    0.196638633122859    0.296353016577562  0.0000
  O1     O1        0.268924627388189    0.749674455897577    0.294523395263438  0.0000
  O1     O1        0.740428611560315    0.288559437990715    0.668537392907170  0.0000
  O3     O3        0.766299798262322    0.693964256900016    0.683651417302456  0.0000
  O1     O1        0.117153845314024    0.333183551748869    0.140783457988662  0.0000
  O1     O1        0.382915313559706    0.619250882440580    0.134495433243324  0.0000
  O3     O3        0.828560424061708    0.198118328768312    0.891899955514290  0.0000
  O3     O3        0.676123725839844    0.770741660735726    0.905641480814650  0.0000
  O3     O3        0.850069417388021    0.722564346590421    0.891539514010257  0.0000
  O1     O1        0.649359952726405    0.245520382418729    0.884078562145262  0.0000
  O1     O1        0.140606816190795    0.726227405142942    0.136035811422588  0.0000
  O1     O1        0.360068537354671    0.221013805016747    0.133351467787371  0.0000
  O3     O3        0.632983875883931    0.515680011963880    0.055796436399738  0.0000
  O3     O3        0.873648256883673    0.435767681561534    0.056225175520281  0.0000
  O1     O1        0.341827154621897    0.436736124473840    0.913595764509521  0.0000
  O1     O1        0.151749625786309    0.516047815307796    0.917047508182586  0.0000
  O3     O3        0.750036178293065    0.272237070218915    0.100217259787957  0.0000
  O3     O3        0.757031842165436    0.675111464738906    0.111190439393221  0.0000
  O1     O1        0.230305406225149    0.207082694090918    0.976014680286123  0.0000
  O1     O1        0.266045778600937    0.744920953821344    0.971347382291555  0.0000
