data_c00327.vasp
_audit_creation_method             Generated by GULP
_audit_author_name                 Salvador R. G. Balestra
_symmetry_space_group_name_H-M     'P 1             '
_symmetry_Int_Tables_number        1

loop_
_symmetry_equiv_pos_site_id
_symmetry_equiv_pos_as_xyz
_cell_length_a                       17.5668
_cell_length_b                        7.8147
_cell_length_c                       10.3544
_cell_angle_alpha                   90.5872
_cell_angle_beta                    89.8363
_cell_angle_gamma                   88.6406

loop_
_atom_site_label
_atom_site_type_symbol
_atom_site_fract_x
_atom_site_fract_y
_atom_site_fract_z
_atom_site_charge
  Ge     Ge        0.052090000000021    0.000000000000000    0.372269999999958  0.0000
  Ge     Ge        0.445638754500439    0.954421664809910    0.336426110235346  0.0000
  Ge     Ge        0.952901106292199    0.943239890254857    0.631093150922363  0.0000
  Ge     Ge        0.549373142187589    0.997116382138716    0.590892922075366  0.0000
  Ge     Ge        0.546959360112119    0.021688112169202    0.080426801484358  0.0000
  Ge     Ge        0.942436307217054    0.955652637352252    0.126982122985579  0.0000
  Ge     Ge        0.438962369260875    0.956790701566542    0.833558213323787  0.0000
  Ge     Ge        0.140997642685753    0.321002468455168    0.256601458094583  0.0000
  Ge     Ge        0.346682528593583    0.640727879134328    0.264128411000704  0.0000
  Ge     Ge        0.826370726757078    0.226059384337371    0.706809192725877  0.0000
  Ge     Ge        0.672960885519557    0.713854556807467    0.696977543901782  0.0000
  Ge     Ge        0.852815623331031    0.631474474127637    0.699940947772593  0.0000
  Ge     Ge        0.645637227045170    0.311027581531053    0.708583870929627  0.0000
  Ge     Ge        0.323168990093129    0.237336087355078    0.256430921783248  0.0000
  Ge     Ge        0.645759689870152    0.335922344323454    0.024727073551373  0.0000
  Ge     Ge        0.323514045825703    0.253910317040257    0.946045004053659  0.0000
  Ge     Ge        0.167824409719613    0.726514545572849    0.955667204251803  0.0000
  Ge     Ge        0.140277225665150    0.327113515751249    0.946544347423235  0.0000
  Ge     Ge        0.672615780642008    0.734284884749171    0.010306449763035  0.0000
  Ge     Ge        0.826065091407773    0.250731717096467    0.019527805577317  0.0000
  Si     Si        0.048435486380279    0.012956275736981    0.884879258070655  0.0000
  Si     Si        0.169927558079578    0.715699924819000    0.262837843666015  0.0000
  Si     Si        0.849625821330499    0.648657965501484    0.006926247149772  0.0000
  Si     Si        0.345599648831378    0.652619059650703    0.956017621549178  0.0000
  O1     O1        0.078032511748474    0.207088231500218    0.345928290801867  0.0000
  O1     O1        0.411018183562070    0.751689245739769    0.352648564677355  0.0000
  O1     O1        0.876860641323165    0.083338827624207    0.612365681882326  0.0000
  O1     O1        0.624823447283733    0.856220362387024    0.601370578144242  0.0000
  O1     O1        0.920843381657729    0.738178651537227    0.616230154277327  0.0000
  O1     O1        0.576143764645363    0.200346396701504    0.630990774639347  0.0000
  O3     O3        0.127727098436416    0.858434262079367    0.349185952265043  0.0000
  O1     O1        0.370048738878190    0.096656668530847    0.354483401950494  0.0000
  O1     O1        0.026848765365899    0.984629219967963    0.532453890414272  0.0000
  O1     O1        0.521251852175687    0.996876060275346    0.430923494813065  0.0000
  O1     O1        0.974151475027290    0.945857644337662    0.283304146139161  0.0000
  O1     O1        0.473586135374051    0.970611671292235    0.176690963974294  0.0000
  O3     O3        0.980754635673500    0.966055830119928    0.791824515437223  0.0000
  O1     O1        0.470698749800010    0.937633273566383    0.676798239784757  0.0000
  O1     O1        0.578763967933679    0.225782125958570    0.107855690244039  0.0000
  O3     O3        0.910229654874358    0.754614904197923    0.087580939229395  0.0000
  O1     O1        0.369263466703239    0.114201451041051    0.842792105381122  0.0000
  O3     O3        0.120575597740145    0.881285591604352    0.869453442200401  0.0000
  O3     O3        0.407084285813462    0.757647913649827    0.878085740762896  0.0000
  O3     O3        0.077997543133602    0.203042086064862    0.858192566274228  0.0000
  O1     O1        0.625669280378953    0.887017662637867    0.098824266431890  0.0000
  O1     O1        0.873840193949345    0.114540351255295    0.120421872780421  0.0000
  O1     O1        0.517056058794465    0.010205161911634    0.922087125934899  0.0000
  O3     O3        0.020301107691395    0.003393966932027    0.033089357845977  0.0000
  O3     O3        0.154891782853297    0.526068178645016    0.316936069030470  0.0000
  O1     O1        0.340263222054209    0.438775903731472    0.319123266758915  0.0000
  O1     O1        0.841438259260037    0.427900035665572    0.645596896908678  0.0000
  O1     O1        0.658988227590992    0.508197787695005    0.641687440955623  0.0000
  O1     O1        0.226920292658122    0.210449056757016    0.254477826302261  0.0000
  O3     O3        0.259469505808098    0.749724261202308    0.266652216783957  0.0000
  O1     O1        0.730112675633208    0.192881479519763    0.703788029336403  0.0000
  O1     O1        0.768958733150413    0.748777516229967    0.691417079437776  0.0000
  O1     O1        0.107468950006006    0.339366573792242    0.102846912519734  0.0000
  O3     O3        0.373280316375417    0.630460627705461    0.102576140109460  0.0000
  O1     O1        0.857309517018976    0.214418048699529    0.864483870273462  0.0000
  O1     O1        0.640853186176016    0.740866420571829    0.853248929523634  0.0000
  O3     O3        0.878686843622219    0.617954207568938    0.861457104904768  0.0000
  O1     O1        0.619439406427074    0.350947102682782    0.865080031191489  0.0000
  O3     O3        0.139660724910513    0.726437257009096    0.116075085491671  0.0000
  O1     O1        0.357336151498875    0.221919378989638    0.099722089533777  0.0000
  O1     O1        0.654733985633264    0.539880316191131    0.080783428340337  0.0000
  O3     O3        0.837635362373094    0.463236809377644    0.067881552624903  0.0000
  O3     O3        0.336192823990245    0.463840824448437    0.896442012404771  0.0000
  O1     O1        0.147035089511549    0.530059797311957    0.888743585185063  0.0000
  O1     O1        0.730259779177831    0.219087715545119    0.027803404539144  0.0000
  O3     O3        0.770458696796767    0.758521830993931    0.005936574067570  0.0000
  O1     O1        0.227547646730373    0.223291571748318    0.946921793195666  0.0000
  O3     O3        0.264900618136185    0.756436316128310    0.950213783044433  0.0000
