data_c00359.vasp
_audit_creation_method             Generated by GULP
_audit_author_name                 Salvador R. G. Balestra
_symmetry_space_group_name_H-M     'P 1             '
_symmetry_Int_Tables_number        1

loop_
_symmetry_equiv_pos_site_id
_symmetry_equiv_pos_as_xyz
_cell_length_a                       17.4481
_cell_length_b                        7.7540
_cell_length_c                       10.5804
_cell_angle_alpha                   92.6758
_cell_angle_beta                    91.0587
_cell_angle_gamma                   90.0894

loop_
_atom_site_label
_atom_site_type_symbol
_atom_site_fract_x
_atom_site_fract_y
_atom_site_fract_z
_atom_site_charge
  Ge     Ge        0.052090000000021    0.000000000000000    0.372269999999958  0.0000
  Ge     Ge        0.462283190639091    0.047522983050050    0.354132510463398  0.0000
  Ge     Ge        0.949049428777485    0.941825490178069    0.620718112679703  0.0000
  Ge     Ge        0.549245395750655    0.996516915381493    0.623144328869456  0.0000
  Ge     Ge        0.548765236382273    0.044283471719994    0.081000243947983  0.0000
  Ge     Ge        0.949768828809713    0.012088761729166    0.107136459567845  0.0000
  Ge     Ge        0.428239832192903    0.011854111624139    0.842083765090601  0.0000
  Ge     Ge        0.174459884602401    0.270527313252632    0.282317277077075  0.0000
  Ge     Ge        0.332509860453643    0.770201037879000    0.271493755029615  0.0000
  Ge     Ge        0.822420771923196    0.221186171444768    0.736531916902897  0.0000
  Ge     Ge        0.665807286828942    0.691164339729660    0.691230913339974  0.0000
  Ge     Ge        0.850435055076525    0.634622376097238    0.700407867432946  0.0000
  Ge     Ge        0.154198337939371    0.684070517644513    0.290395271225743  0.0000
  Ge     Ge        0.354237800282725    0.342961427089923    0.258985972768141  0.0000
  Ge     Ge        0.647435332168796    0.377004438801999    0.034866154593910  0.0000
  Ge     Ge        0.855825695932523    0.683953955683437    0.003655139690212  0.0000
  Ge     Ge        0.319762008352912    0.742781241261413    0.968853185727595  0.0000
  Ge     Ge        0.162784755170041    0.278824823076841    0.976726520282586  0.0000
  Ge     Ge        0.672078761853911    0.765136044369995    0.002321147476614  0.0000
  Ge     Ge        0.821429393434181    0.279327492371422    0.038177834800000  0.0000
  Si     Si        0.053539426604632    0.987234227396078    0.871580238775723  0.0000
  Si     Si        0.652463614093594    0.307162492917389    0.731717708624673  0.0000
  Si     Si        0.347104077309923    0.337240703815229    0.962896312850410  0.0000
  Si     Si        0.137844815562454    0.674256634820525    0.989685161404300  0.0000
  O1     O1        0.127486346120430    0.145271018010087    0.384301007008355  0.0000
  O1     O1        0.390384455640896    0.896237469072641    0.369725597393147  0.0000
  O1     O1        0.868683401084838    0.059551183976052    0.655433200016091  0.0000
  O1     O1        0.608732057945108    0.823492544855025    0.604023832046408  0.0000
  O1     O1        0.917205432604808    0.731737826144003    0.608459582572894  0.0000
  O3     O3        0.585684872716414    0.166298974058809    0.720763801693761  0.0000
  O1     O1        0.087923277418404    0.794376555913225    0.378997288147842  0.0000
  O1     O1        0.424132962464562    0.250369828258891    0.347393476517571  0.0000
  O1     O1        0.983097490102677    0.019824537125268    0.483177047335242  0.0000
  O1     O1        0.529551306092772    0.056156691865607    0.472652060384773  0.0000
  O1     O1        0.015855655910372    0.042427672688119    0.225079127901926  0.0000
  O1     O1        0.506184604577384    0.988019745149375    0.215127811858893  0.0000
  O3     O3        0.024836080765359    0.965873868713884    0.728332152867523  0.0000
  O1     O1        0.463178109815491    0.963125648114388    0.695002236053710  0.0000
  O1     O1        0.569534835296752    0.261508624981492    0.075298526115738  0.0000
  O1     O1        0.918592404926000    0.802023215983408    0.098108794629343  0.0000
  O3     O3        0.397393924214029    0.223965587250959    0.864813248599056  0.0000
  O2     O2        0.076690214301476    0.798868194978958    0.923032950789620  0.0000
  O1     O1        0.350873895053295    0.877569495600336    0.859652053283546  0.0000
  O3     O3        0.124856255831920    0.119094481928558    0.876056545227624  0.0000
  O1     O1        0.638473302715495    0.951779549845669    0.070830177261911  0.0000
  O1     O1        0.873879222390290    0.149080434875134    0.133193857277851  0.0000
  O1     O1        0.497481842376561    0.963303289605130    0.951632184512413  0.0000
  O3     O3        0.988570418186566    0.065934014153982    0.962293441622034  0.0000
  O1     O1        0.168085498677018    0.482447109377760    0.341102367875060  0.0000
  O1     O1        0.341859260797435    0.553880448089131    0.302319423067991  0.0000
  O1     O1        0.865366671260147    0.417667525058829    0.713306865448877  0.0000
  O3     O3        0.626347155413075    0.484518887647126    0.671416912785673  0.0000
  O1     O1        0.271062005054870    0.226829359513602    0.274851762840309  0.0000
  O1     O1        0.236464316142904    0.807845346418377    0.292409215855552  0.0000
  O3     O3        0.729472838606461    0.229253366115596    0.670942074737171  0.0000
  O1     O1        0.758804877340747    0.671329268722672    0.643747121074845  0.0000
  O1     O1        0.137351771282838    0.251488196568384    0.129571822058733  0.0000
  O1     O1        0.356298190518731    0.800175073058583    0.116675126133551  0.0000
  O1     O1        0.817466119345437    0.170534709590777    0.891656329113518  0.0000
  O1     O1        0.662795369334555    0.782326478514632    0.841102915279684  0.0000
  O1     O1        0.862667438563514    0.736119555943568    0.848018491897790  0.0000
  O3     O3        0.676542783872281    0.362638645546355    0.876620691848151  0.0000
  O3     O3        0.118002462337624    0.663272345451308    0.135838072240053  0.0000
  O3     O3        0.384107385820115    0.319276985244759    0.102519311231134  0.0000
  O1     O1        0.622779747756625    0.589313678418953    0.055425734311449  0.0000
  O1     O1        0.870795672546008    0.468454959205332    0.018829095821788  0.0000
  O3     O3        0.346401564614802    0.533624200015562    0.924008158217555  0.0000
  O3     O3        0.135338125831748    0.481515597820970    0.927132139690386  0.0000
  O1     O1        0.733276864475116    0.319408356355309    0.104173256646096  0.0000
  O1     O1        0.764208705426060    0.730984218658386    0.050510630178204  0.0000
  O3     O3        0.261003714399336    0.264731707956531    0.969819692815945  0.0000
  O3     O3        0.221791581985298    0.756002250801095    0.979755535462957  0.0000
