data_c00361.vasp
_audit_creation_method             Generated by GULP
_audit_author_name                 Salvador R. G. Balestra
_symmetry_space_group_name_H-M     'P 1             '
_symmetry_Int_Tables_number        1

loop_
_symmetry_equiv_pos_site_id
_symmetry_equiv_pos_as_xyz
_cell_length_a                       17.6275
_cell_length_b                        7.8286
_cell_length_c                       10.4627
_cell_angle_alpha                   91.1450
_cell_angle_beta                    90.1792
_cell_angle_gamma                   89.4612

loop_
_atom_site_label
_atom_site_type_symbol
_atom_site_fract_x
_atom_site_fract_y
_atom_site_fract_z
_atom_site_charge
  Ge     Ge        0.052090000000021    0.000000000000000    0.372269999999958  0.0000
  Ge     Ge        0.457118966265884    0.031597583838639    0.391464219020901  0.0000
  Ge     Ge        0.950428523995489    0.979708805448508    0.627331237344038  0.0000
  Ge     Ge        0.557340869702339    0.013142094780487    0.653906817112639  0.0000
  Ge     Ge        0.561927718065670    0.035162992248654    0.144287812432348  0.0000
  Ge     Ge        0.947176077650726    0.026713428313139    0.111598915700348  0.0000
  Ge     Ge        0.448205628208609    0.016485299662140    0.901597400135467  0.0000
  Ge     Ge        0.175136397513812    0.276625571209796    0.291947447058430  0.0000
  Ge     Ge        0.331666381550993    0.748849601269442    0.283006951447887  0.0000
  Ge     Ge        0.832514669726578    0.266166357533754    0.751105949901075  0.0000
  Ge     Ge        0.673564908392688    0.721490208952518    0.717270791410489  0.0000
  Ge     Ge        0.856959259877649    0.668477178357488    0.722095226348146  0.0000
  Ge     Ge        0.152415869662380    0.683510737767877    0.298192981512142  0.0000
  Ge     Ge        0.355091117652139    0.340943892405079    0.281534228238615  0.0000
  Ge     Ge        0.652133074097370    0.361956870194813    0.046098630042061  0.0000
  Ge     Ge        0.350672871150165    0.341039595244587    0.969932158205375  0.0000
  Ge     Ge        0.141546665460638    0.683290913208501    0.986643130706859  0.0000
  Ge     Ge        0.323154259047546    0.744104594040285    0.972044631950318  0.0000
  Ge     Ge        0.168753396785555    0.277338253054476    0.981456028200147  0.0000
  Ge     Ge        0.832010244454648    0.321908637800750    0.058510038597403  0.0000
  Si     Si        0.053706929979804    0.000238108105268    0.873809113453340  0.0000
  Si     Si        0.655371969411400    0.327657056961280    0.741115330498876  0.0000
  Si     Si        0.850118460583569    0.712119265713025    0.020844802400719  0.0000
  Si     Si        0.671935040358200    0.754458380168484    0.017509117125073  0.0000
  O1     O1        0.123817985567236    0.146619682992604    0.387227556400764  0.0000
  O1     O1        0.384856683825565    0.888809700229999    0.370532439511975  0.0000
  O1     O1        0.872345812782864    0.102101548045139    0.665596757993968  0.0000
  O1     O1        0.624169161179783    0.856604760221118    0.621063595715364  0.0000
  O1     O1        0.920467306957585    0.771731801781673    0.628819886410904  0.0000
  O3     O3        0.599616155006523    0.211272177169687    0.657507387714117  0.0000
  O1     O1        0.090335671858239    0.799487073390847    0.391797668869109  0.0000
  O1     O1        0.424107271774545    0.234101999089431    0.363122927226745  0.0000
  O1     O1        0.979949930234465    0.034713915768547    0.477870294388357  0.0000
  O1     O1        0.484279909942976    0.016031271684814    0.548110235281088  0.0000
  O1     O1        0.019489523015519    0.011302822709438    0.217297441111639  0.0000
  O1     O1        0.536019523670175    0.994009017338410    0.298208938287706  0.0000
  O3     O3        0.027390801576148    0.009596380794455    0.727580521216543  0.0000
  O1     O1        0.519634020001980    0.964960853167440    0.799946250574196  0.0000
  O1     O1        0.588419426937277    0.245888171059848    0.129251276882838  0.0000
  O3     O3        0.894102143846658    0.840545316905814    0.113292510181286  0.0000
  O1     O1        0.414833746338485    0.222023463963033    0.882578039723423  0.0000
  O3     O3        0.072962352682888    0.805236103172598    0.911156999607824  0.0000
  O1     O1        0.371332541010440    0.884673984164231    0.881749484265764  0.0000
  O3     O3        0.126185372266762    0.119976840882795    0.889609808643333  0.0000
  O3     O3        0.640001905735426    0.906932354673039    0.105239609628704  0.0000
  O1     O1        0.887804380703342    0.194664701794214    0.151551666010568  0.0000
  O1     O1        0.483373184650234    0.991842067722994    0.054247272416530  0.0000
  O3     O3        0.985182634930495    0.069325257578613    0.962770004377225  0.0000
  O1     O1        0.165873215471924    0.482655854729333    0.353138224901161  0.0000
  O1     O1        0.343316969434611    0.544818192835803    0.340194077391145  0.0000
  O1     O1        0.878934768995288    0.455864307967567    0.726899806001879  0.0000
  O3     O3        0.631399893964077    0.523422737077279    0.721356311228769  0.0000
  O1     O1        0.270569031276720    0.231024284980959    0.289325911382974  0.0000
  O1     O1        0.236292266166789    0.794803152621215    0.291985817643953  0.0000
  O3     O3        0.741172411142522    0.299330449758453    0.694271210560923  0.0000
  O1     O1        0.765577494617702    0.700754761659503    0.668720470775881  0.0000
  O1     O1        0.140342344529061    0.266419685163860    0.137810798443138  0.0000
  O1     O1        0.358079104873708    0.753026194340588    0.125637669525025  0.0000
  O1     O1        0.828829052415146    0.222744425035799    0.909751423376213  0.0000
  O3     O3        0.668279751296772    0.809216674292553    0.871029983688028  0.0000
  O3     O3        0.864503355589449    0.761346967224285    0.874766394673591  0.0000
  O3     O3        0.650260804994349    0.281204434978750    0.890414302475154  0.0000
  O1     O1        0.117751323825800    0.667426724031476    0.143917029675591  0.0000
  O1     O1        0.383115677279142    0.351745938899605    0.124974584586049  0.0000
  O3     O3        0.627779555736193    0.578123526223566    0.042377873391433  0.0000
  O3     O3        0.876012663217066    0.518037872043351    0.044520610475109  0.0000
  O1     O1        0.338019647135577    0.540022656313229    0.910476140258926  0.0000
  O1     O1        0.148186183195246    0.478472586687612    0.924887166193910  0.0000
  O1     O1        0.740767369943534    0.337141537528786    0.112669503101843  0.0000
  O2     O2        0.759871408109720    0.711440592347091    0.049924651032109  0.0000
  O1     O1        0.264295300091158    0.239774709496573    0.974542260132599  0.0000
  O1     O1        0.227490617320958    0.783560979652183    0.973533718059881  0.0000
