data_c00388.vasp
_audit_creation_method             Generated by GULP
_audit_author_name                 Salvador R. G. Balestra
_symmetry_space_group_name_H-M     'P 1             '
_symmetry_Int_Tables_number        1

loop_
_symmetry_equiv_pos_site_id
_symmetry_equiv_pos_as_xyz
_cell_length_a                       17.4202
_cell_length_b                        7.7999
_cell_length_c                       10.3746
_cell_angle_alpha                   92.4382
_cell_angle_beta                    90.3133
_cell_angle_gamma                   89.1920

loop_
_atom_site_label
_atom_site_type_symbol
_atom_site_fract_x
_atom_site_fract_y
_atom_site_fract_z
_atom_site_charge
  Ge     Ge        0.052090000000021    0.000000000000000    0.372269999999958  0.0000
  Ge     Ge        0.450728825696005    0.044298281657770    0.377786444061887  0.0000
  Ge     Ge        0.960477147608686    0.933436225693139    0.634645507752215  0.0000
  Ge     Ge        0.554970590953728    0.982874509090148    0.631759160468788  0.0000
  Ge     Ge        0.555584955066665    0.989707847512472    0.121732080302915  0.0000
  Ge     Ge        0.934179663071804    0.951691810471831    0.146020446679969  0.0000
  Ge     Ge        0.443968141121555    0.966030767041178    0.883113185344570  0.0000
  Ge     Ge        0.164371032735165    0.304626733895408    0.298654425593301  0.0000
  Ge     Ge        0.324749953438075    0.763755738849435    0.249906154022543  0.0000
  Ge     Ge        0.832996521716783    0.215886251654086    0.705610772994897  0.0000
  Ge     Ge        0.676933790276713    0.695865128790253    0.704243363251248  0.0000
  Ge     Ge        0.860060085449218    0.626316289758474    0.722178338218809  0.0000
  Ge     Ge        0.350025168696315    0.350254949712873    0.286902757500753  0.0000
  Ge     Ge        0.854586870166691    0.617769705392207    0.033918428199188  0.0000
  Ge     Ge        0.348488508842890    0.296500918123614    0.977974097576549  0.0000
  Ge     Ge        0.142606285967586    0.624256508315575    0.948746997189155  0.0000
  Ge     Ge        0.317607046236904    0.702473614064232    0.942127527898722  0.0000
  Ge     Ge        0.162495838424916    0.235705814645575    0.981658870423590  0.0000
  Ge     Ge        0.671289116094606    0.688711751159637    0.019951619708117  0.0000
  Ge     Ge        0.819268349244709    0.213630769225076    0.015026264088716  0.0000
  Si     Si        0.045592723213461    0.954756367561571    0.906881688740386  0.0000
  Si     Si        0.656622547384770    0.298073852677872    0.692845142527535  0.0000
  Si     Si        0.153631437740301    0.687792381745099    0.258539399274361  0.0000
  Si     Si        0.643654798046116    0.297367006863008    0.996986813819101  0.0000
  O1     O1        0.110395139477796    0.172807726110749    0.390148847597229  0.0000
  O1     O1        0.373534246208088    0.920980464615733    0.331433988058772  0.0000
  O1     O1        0.884690237465216    0.072858012516174    0.609547691152222  0.0000
  O1     O1        0.628678568419043    0.835563433574634    0.609645109085463  0.0000
  O1     O1        0.928178744938995    0.728327915040589    0.636316710360434  0.0000
  O3     O3        0.593454860124075    0.185629822074717    0.618747004709793  0.0000
  O3     O3        0.088024775826224    0.831239629127248    0.272505469905962  0.0000
  O1     O1        0.416320950160463    0.252705407432309    0.383473895718756  0.0000
  O1     O1        0.032868639939078    0.940187262254583    0.525212929986271  0.0000
  O1     O1        0.480432223729792    0.974578472844637    0.524907661703923  0.0000
  O1     O1        0.966000962216395    0.027986066237712    0.293724479031306  0.0000
  O1     O1        0.529443405507976    0.023634086669225    0.278985472161556  0.0000
  O3     O3        0.996395214286768    0.001721483261396    0.784292454575400  0.0000
  O1     O1        0.519497622116973    0.938965668930955    0.780023989840512  0.0000
  O3     O3        0.577411423008992    0.183063748234928    0.051974399665271  0.0000
  O1     O1        0.916106775721297    0.735279817326186    0.132704414921620  0.0000
  O1     O1        0.409579750566999    0.173700802940742    0.883539405373911  0.0000
  O3     O3        0.065236741589280    0.750381266465478    0.908032237496588  0.0000
  O1     O1        0.370518735612653    0.827984315587993    0.845305219404327  0.0000
  O3     O3        0.126857662084254    0.049855657801366    0.909095029670600  0.0000
  O1     O1        0.629532114536617    0.843749876389353    0.118146902755936  0.0000
  O1     O1        0.849461679204785    0.056881780660499    0.113362133116022  0.0000
  O1     O1        0.479469198870479    0.913292078382856    0.032931386509760  0.0000
  O3     O3        0.000134282479955    0.018546217642049    0.033898720874293  0.0000
  O3     O3        0.127258350915199    0.512376744953074    0.320160129592036  0.0000
  O1     O1        0.366307423158467    0.564814164940821    0.271949579173910  0.0000
  O1     O1        0.877766141151380    0.410432941483366    0.712909611416122  0.0000
  O3     O3        0.635646435824523    0.495686437998706    0.678949122383648  0.0000
  O1     O1        0.258657805550931    0.317450349933900    0.343499960401918  0.0000
  O3     O3        0.232679679782336    0.759678058731172    0.317952469317799  0.0000
  O3     O3        0.741871408753989    0.252228330503494    0.641758371227119  0.0000
  O1     O1        0.771382194213979    0.678514040614145    0.660331960531013  0.0000
  O1     O1        0.155697313595187    0.216753562025786    0.145225424141315  0.0000
  O1     O1        0.316403335916946    0.811586596087985    0.090904061687406  0.0000
  O1     O1        0.825382539452991    0.138746351600008    0.857211531155081  0.0000
  O1     O1        0.674194426069955    0.758303610929173    0.865201872884887  0.0000
  O1     O1        0.864191812552777    0.694941640775282    0.881791769821264  0.0000
  O2     O2        0.657546282652366    0.253349609109598    0.844492587676419  0.0000
  O3     O3        0.173460513807152    0.631800161337601    0.109733529238335  0.0000
  O1     O1        0.359835933129618    0.247456163597683    0.136955349415531  0.0000
  O3     O3        0.621002366012270    0.496564629415032    0.018377430532422  0.0000
  O1     O1        0.871531862256375    0.400404700869641    0.033883504679577  0.0000
  O1     O1        0.364271879450251    0.509472552755533    0.959479562092321  0.0000
  O1     O1        0.115278269764785    0.415384646607170    0.926804761477355  0.0000
  O3     O3        0.725248473661587    0.257512645651490    0.062623114456102  0.0000
  O1     O1        0.760798595937166    0.649723971511458    0.079958054143215  0.0000
  O1     O1        0.255035820587357    0.255497293263685    0.933253440549020  0.0000
  O1     O1        0.227354268420853    0.673015907811799    0.876135720240685  0.0000
