data_c00392.vasp
_audit_creation_method             Generated by GULP
_audit_author_name                 Salvador R. G. Balestra
_symmetry_space_group_name_H-M     'P 1             '
_symmetry_Int_Tables_number        1

loop_
_symmetry_equiv_pos_site_id
_symmetry_equiv_pos_as_xyz
_cell_length_a                       17.6372
_cell_length_b                        7.8247
_cell_length_c                       10.3135
_cell_angle_alpha                   89.9905
_cell_angle_beta                    90.2561
_cell_angle_gamma                   88.8574

loop_
_atom_site_label
_atom_site_type_symbol
_atom_site_fract_x
_atom_site_fract_y
_atom_site_fract_z
_atom_site_charge
  Ge     Ge        0.052090000000021    0.000000000000000    0.372269999999958  0.0000
  Ge     Ge        0.449943168090944    0.947405920008930    0.394798805827197  0.0000
  Ge     Ge        0.947300004180390    0.963948916341231    0.627486953277022  0.0000
  Ge     Ge        0.551713445163308    0.013825560407053    0.649751302155249  0.0000
  Ge     Ge        0.554899309034154    0.002806835201326    0.147735910621769  0.0000
  Ge     Ge        0.951031094202035    0.951929660577169    0.110155233179225  0.0000
  Ge     Ge        0.446704792297006    0.941029565192970    0.900958997796523  0.0000
  Ge     Ge        0.147932493854797    0.312433442965062    0.292752166338935  0.0000
  Ge     Ge        0.353052343132966    0.637596849593537    0.276395802422595  0.0000
  Ge     Ge        0.829810495911865    0.260461748208268    0.725810330472633  0.0000
  Ge     Ge        0.676787585451431    0.732273382664651    0.727878832493213  0.0000
  Ge     Ge        0.647670780864266    0.331223017559321    0.715665017101149  0.0000
  Ge     Ge        0.173473858312792    0.718405940800737    0.285459533570417  0.0000
  Ge     Ge        0.326883534989127    0.233708849181526    0.285544057129780  0.0000
  Ge     Ge        0.646036270091131    0.320232567757933    0.028927713691480  0.0000
  Ge     Ge        0.847594174066427    0.641185196218051    0.047972671714273  0.0000
  Ge     Ge        0.324064302993345    0.228457113941584    0.972405914572342  0.0000
  Ge     Ge        0.165365823105663    0.699787009814987    0.971521685377082  0.0000
  Ge     Ge        0.347227059559625    0.626786716500505    0.958960826608426  0.0000
  Ge     Ge        0.827137558252130    0.240239879937064    0.038232097702430  0.0000
  Si     Si        0.054798612839994    0.996908174441966    0.865400275392147  0.0000
  Si     Si        0.852385208513391    0.654692383310376    0.737872525510336  0.0000
  Si     Si        0.145413633283462    0.301282022914377    0.986178990938247  0.0000
  Si     Si        0.672446727088079    0.719050914854492    0.036670771880584  0.0000
  O1     O1        0.084497906941502    0.204977062788056    0.386116763333017  0.0000
  O1     O1        0.421981111909872    0.744496719070968    0.358610495902715  0.0000
  O1     O1        0.878708953520965    0.120277146451503    0.628472311961935  0.0000
  O1     O1        0.630699705548649    0.880904704504653    0.636362371540565  0.0000
  O3     O3        0.916233257449425    0.763336717586629    0.668241937985810  0.0000
  O1     O1        0.583635958573880    0.217008492010499    0.625848562585701  0.0000
  O1     O1        0.126930364364822    0.856808337228296    0.386445960930066  0.0000
  O1     O1        0.375687590275163    0.089554698116445    0.379401514570995  0.0000
  O1     O1        0.978349710835288    0.953552705697165    0.469527924351505  0.0000
  O1     O1        0.477847348181278    0.955846159447566    0.555473727237267  0.0000
  O1     O1        0.024011782205752    0.983463741612336    0.211531345221179  0.0000
  O1     O1        0.528719940422636    0.000173705203302    0.307832192281043  0.0000
  O3     O3        0.026812683811026    0.015321771834034    0.717883011377015  0.0000
  O1     O1        0.521777253141186    0.992861761573728    0.808772503157825  0.0000
  O1     O1        0.581985263239905    0.208707633318007    0.116964821685097  0.0000
  O1     O1        0.912764637708689    0.752488215994005    0.132166224142169  0.0000
  O1     O1        0.369335212099773    0.078416841323423    0.881050923342103  0.0000
  O3     O3        0.116744509060844    0.843903096028779    0.874140461920009  0.0000
  O1     O1        0.411780912721979    0.740650797400873    0.872817836642544  0.0000
  O2     O2        0.087772007493914    0.179660742895278    0.909549002894651  0.0000
  O3     O3        0.628158394890589    0.856196698942005    0.123494555475040  0.0000
  O1     O1        0.877362567800607    0.096657825597986    0.130070089453545  0.0000
  O1     O1        0.476148400158200    0.949910169701502    0.060788409718263  0.0000
  O3     O3        0.981614997500469    0.955475124572793    0.950273910088354  0.0000
  O1     O1        0.160877890014793    0.514778346421100    0.346266932870112  0.0000
  O1     O1        0.340712709705986    0.438733359165694    0.341405802617749  0.0000
  O3     O3        0.842782700650485    0.469662987768587    0.672865675944657  0.0000
  O1     O1        0.656747676347304    0.535433199314820    0.662241955248023  0.0000
  O1     O1        0.231670383498505    0.195832158303522    0.292838314638889  0.0000
  O1     O1        0.268950660157989    0.754545320817108    0.281288462163505  0.0000
  O1     O1        0.734357109829606    0.225819401874203    0.716986586742458  0.0000
  O3     O3        0.773481369882951    0.763033210142441    0.727495262823207  0.0000
  O3     O3        0.116793564848877    0.326660622976000    0.132212300965165  0.0000
  O1     O1        0.377671064326883    0.610592556300527    0.117427478275612  0.0000
  O1     O1        0.860474295607101    0.227617538951997    0.881632918039326  0.0000
  O3     O3        0.645276686428100    0.735885713791009    0.887431211971666  0.0000
  O3     O3        0.873491175018068    0.619226889158115    0.886541353333674  0.0000
  O1     O1        0.614577343120465    0.333664776651401    0.872523310576083  0.0000
  O1     O1        0.137954670339623    0.729053451046684    0.128997244976671  0.0000
  O1     O1        0.358743434586223    0.216921287878693    0.128577345060774  0.0000
  O3     O3        0.657524080650576    0.526741917401623    0.086353515531283  0.0000
  O1     O1        0.840466693999677    0.439492348164477    0.105958517288625  0.0000
  O1     O1        0.340089008353575    0.423685500404770    0.901479314125559  0.0000
  O3     O3        0.150139347793937    0.488695380251243    0.923038899068552  0.0000
  O1     O1        0.731285454542968    0.209826294402168    0.034870187542791  0.0000
  O3     O3        0.761603174029509    0.753221166730374    0.047467985258777  0.0000
  O3     O3        0.227021997265487    0.205827380052263    0.985388032197424  0.0000
  O1     O1        0.260507461926621    0.732665526589789    0.957734418844943  0.0000
