data_c00311.vasp
_audit_creation_method             Generated by GULP
_audit_author_name                 Salvador R. G. Balestra
_symmetry_space_group_name_H-M     'P 1             '
_symmetry_Int_Tables_number        1

loop_
_symmetry_equiv_pos_site_id
_symmetry_equiv_pos_as_xyz
_cell_length_a                       17.5997
_cell_length_b                        7.8341
_cell_length_c                       10.3154
_cell_angle_alpha                   90.9735
_cell_angle_beta                    90.4441
_cell_angle_gamma                   91.1316

loop_
_atom_site_label
_atom_site_type_symbol
_atom_site_fract_x
_atom_site_fract_y
_atom_site_fract_z
_atom_site_charge
  Ge     Ge        0.052090000000021    0.000000000000000    0.372269999999958  0.0000
  Ge     Ge        0.443724579570347    0.046597874392087    0.358903169818835  0.0000
  Ge     Ge        0.950245764634138    0.043117831110806    0.626636966048749  0.0000
  Ge     Ge        0.546595592394335    0.990010458385550    0.614269949054213  0.0000
  Ge     Ge        0.549944215049439    0.996899522972118    0.112795605516067  0.0000
  Ge     Ge        0.936513315489089    0.054309655486851    0.132775963312646  0.0000
  Ge     Ge        0.440204796630103    0.038058005748183    0.866331942912675  0.0000
  Ge     Ge        0.168327385124041    0.295757438013335    0.259538640245650  0.0000
  Ge     Ge        0.322133042068733    0.759769741741624    0.246258853493048  0.0000
  Ge     Ge        0.850806956996151    0.357372671168392    0.699346719127573  0.0000
  Ge     Ge        0.646056878688217    0.677993027150832    0.683956669672757  0.0000
  Ge     Ge        0.824702354187519    0.762357263837346    0.695704464342449  0.0000
  Ge     Ge        0.670413049993137    0.274068350374673    0.691964283166374  0.0000
  Ge     Ge        0.349194513887319    0.359339707928042    0.248108000462570  0.0000
  Ge     Ge        0.666358021152968    0.291144859145912    0.004573780628148  0.0000
  Ge     Ge        0.818215041136495    0.770150717547363    0.011260178599236  0.0000
  Ge     Ge        0.334057254103686    0.345317517580635    0.929843082949791  0.0000
  Ge     Ge        0.137567702096931    0.680736245567359    0.947479547818586  0.0000
  Ge     Ge        0.319153446227035    0.746147395859186    0.932419693290475  0.0000
  Ge     Ge        0.848372985736071    0.369420811004520    0.014402243772644  0.0000
  Si     Si        0.040591287738457    0.990605945438930    0.888720836759797  0.0000
  Si     Si        0.144064010643684    0.691296914561038    0.252286472966349  0.0000
  Si     Si        0.156405398109247    0.282610367031923    0.952324313256362  0.0000
  Si     Si        0.641476626618660    0.686528276981315    0.993323706404556  0.0000
  O1     O1        0.119148896977146    0.158553944426911    0.354753764340874  0.0000
  O1     O1        0.364326239738378    0.919490387493835    0.335999595186737  0.0000
  O1     O1        0.915188612858028    0.244371315115276    0.610169833568490  0.0000
  O1     O1        0.579565592396169    0.785710277010692    0.597244527844732  0.0000
  O1     O1        0.877326630460667    0.896337598627580    0.601935194256612  0.0000
  O1     O1        0.620999093105987    0.132475765517969    0.593900457903457  0.0000
  O3     O3        0.086683476006542    0.799799852516319    0.338533394680991  0.0000
  O1     O1        0.420027896414048    0.252810221921406    0.324822428848762  0.0000
  O1     O1        0.026584070197651    0.003089203743259    0.533248656218365  0.0000
  O1     O1        0.470292140524186    0.031883554502150    0.519212138555286  0.0000
  O1     O1        0.969817145107807    0.038962293579917    0.288541232048393  0.0000
  O1     O1        0.520887208489170    0.982912644130653    0.271172304110840  0.0000
  O3     O3        0.973665750409051    0.026815121145302    0.790803076437378  0.0000
  O1     O1        0.517944166019234    0.011986773671831    0.773691426208798  0.0000
  O1     O1        0.619833757297386    0.151586185452033    0.103420053677685  0.0000
  O1     O1        0.857022579976373    0.926608874551997    0.109051052017575  0.0000
  O1     O1        0.393433189332446    0.225792029210772    0.838766850042041  0.0000
  O3     O3        0.074876331777637    0.803648450107691    0.861483432094688  0.0000
  O1     O1        0.372225424016986    0.880014334715755    0.840046293862834  0.0000
  O2     O2        0.106336739478020    0.138641861960055    0.875136901596318  0.0000
  O3     O3        0.577934805024617    0.794425758841349    0.065569410191506  0.0000
  O1     O1        0.912548495862650    0.261728296543026    0.105944012039331  0.0000
  O1     O1        0.470763364712629    0.048673859232750    0.025594392378981  0.0000
  O3     O3        0.009910225880610    0.988583716557089    0.034884849124612  0.0000
  O3     O3        0.156252053656415    0.505841755901655    0.311872597405380  0.0000
  O1     O1        0.342966186694300    0.564126209462659    0.308704481755625  0.0000
  O1     O1        0.837287399235286    0.555617498859321    0.639486093357447  0.0000
  O1     O1        0.657770093232305    0.474927476638994    0.628288454519078  0.0000
  O1     O1        0.262888492666422    0.254089521560177    0.266829790985092  0.0000
  O3     O3        0.224925964102395    0.790371979211652    0.244795259491402  0.0000
  O1     O1        0.766134932358530    0.240463295790051    0.697941622364982  0.0000
  O1     O1        0.728981099328734    0.798072839447742    0.682419213492639  0.0000
  O3     O3        0.133157198746344    0.276774426763895    0.102732835078005  0.0000
  O1     O1        0.353323410355157    0.767332680347562    0.089122758555803  0.0000
  O1     O1        0.880202601005177    0.381077051384122    0.857928484331942  0.0000
  O3     O3        0.617730200137323    0.656999253464278    0.844048358097492  0.0000
  O1     O1        0.851946506350561    0.782956899863958    0.856078435930603  0.0000
  O1     O1        0.635626228313135    0.260061219184266    0.847669736800729  0.0000
  O3     O3        0.110221300944739    0.670915109564509    0.107791603919016  0.0000
  O1     O1        0.367698036553963    0.371617011771044    0.085847182353681  0.0000
  O3     O3        0.650681634946598    0.501291948003033    0.055407221425348  0.0000
  O1     O1        0.838206952272767    0.573502618925420    0.073232155167684  0.0000
  O1     O1        0.327275658154115    0.543655967386476    0.867457135552464  0.0000
  O3     O3        0.141094332267564    0.469827611554646    0.894253820691183  0.0000
  O1     O1        0.762240681794829    0.260903427755759    0.013166126638040  0.0000
  O3     O3        0.720551604765733    0.793574011788950    0.002690159423032  0.0000
  O3     O3        0.245101066712096    0.244397596290717    0.939759971685143  0.0000
  O1     O1        0.223569441980058    0.783146685592188    0.934404699845779  0.0000
