data_c00349.vasp
_audit_creation_method             Generated by GULP
_audit_author_name                 Salvador R. G. Balestra
_symmetry_space_group_name_H-M     'P 1             '
_symmetry_Int_Tables_number        1

loop_
_symmetry_equiv_pos_site_id
_symmetry_equiv_pos_as_xyz
_cell_length_a                       17.7551
_cell_length_b                        7.8716
_cell_length_c                       10.4199
_cell_angle_alpha                   90.2475
_cell_angle_beta                    90.9188
_cell_angle_gamma                   90.4342

loop_
_atom_site_label
_atom_site_type_symbol
_atom_site_fract_x
_atom_site_fract_y
_atom_site_fract_z
_atom_site_charge
  Ge     Ge        0.052090000000021    0.000000000000000    0.372269999999958  0.0000
  Ge     Ge        0.451153427696313    0.974767591478487    0.329054970010921  0.0000
  Ge     Ge        0.946608437258544    0.990306465586368    0.624048756511579  0.0000
  Ge     Ge        0.548398672611678    0.966798304745298    0.589948860560465  0.0000
  Ge     Ge        0.549532426049704    0.982154921809487    0.067657708249204  0.0000
  Ge     Ge        0.944089021401147    0.009487021792906    0.121417929198708  0.0000
  Ge     Ge        0.434343671957407    0.978764071879494    0.824682922495970  0.0000
  Ge     Ge        0.150082274468866    0.311116685006050    0.257316916286622  0.0000
  Ge     Ge        0.348490204912409    0.663991949853313    0.252662379836240  0.0000
  Ge     Ge        0.841618518070877    0.299336801742546    0.701564168703657  0.0000
  Ge     Ge        0.646465329093091    0.653170695838639    0.694850662232522  0.0000
  Ge     Ge        0.827027088254398    0.702616637379895    0.687617178483393  0.0000
  Ge     Ge        0.170111300268764    0.716933529393954    0.259915328818448  0.0000
  Ge     Ge        0.329668141654532    0.253983638371268    0.250403773575063  0.0000
  Ge     Ge        0.667740104844618    0.275846314459687    0.013864876495535  0.0000
  Ge     Ge        0.826871074021934    0.724692339190372    0.998659252621962  0.0000
  Ge     Ge        0.324334542593679    0.270175162720246    0.941032256560430  0.0000
  Ge     Ge        0.161926025011070    0.716523334280112    0.948710962540874  0.0000
  Ge     Ge        0.142358614015618    0.314715310805151    0.945401283503710  0.0000
  Ge     Ge        0.848906734219292    0.322114206140100    0.016501443813903  0.0000
  Si     Si        0.047046371838052    0.997855968158660    0.877344493508626  0.0000
  Si     Si        0.664363622479121    0.254144352117201    0.708811305110070  0.0000
  Si     Si        0.340165918429924    0.671365256970867    0.947544295044056  0.0000
  Si     Si        0.648583639929099    0.671653300621383    0.997414126187170  0.0000
  O1     O1        0.086678634607170    0.200411192836841    0.346540645539631  0.0000
  O1     O1        0.413052446506940    0.774068699917826    0.343470895290728  0.0000
  O1     O1        0.899819250723085    0.179086560384583    0.610398835697811  0.0000
  O1     O1        0.582831139585996    0.764319213329191    0.605357658280002  0.0000
  O1     O1        0.881340596689556    0.832258280788288    0.595167816154106  0.0000
  O3     O3        0.616334399226075    0.115688645304338    0.630189466590937  0.0000
  O1     O1        0.121701351923672    0.853478122240893    0.354576921358200  0.0000
  O1     O1        0.381420917600657    0.123864884808086    0.347112486231330  0.0000
  O1     O1        0.022393283524783    0.982710808450961    0.527709311188366  0.0000
  O1     O1        0.525797927758783    0.001809851035673    0.430747025642910  0.0000
  O1     O1        0.974869321815170    0.965386017377316    0.273697380281012  0.0000
  O1     O1        0.477741130099361    0.994388156077540    0.171506850594128  0.0000
  O3     O3        0.977816526882169    0.965899370352173    0.782147312432389  0.0000
  O1     O1        0.464816595302035    0.981018304864314    0.669114580127427  0.0000
  O1     O1        0.613883745180667    0.142613465244192    0.101601506776589  0.0000
  O1     O1        0.867090377641157    0.883367086023045    0.087182053217021  0.0000
  O1     O1        0.370708228310278    0.140340324114520    0.838223133696849  0.0000
  O3     O3        0.114504347037595    0.864136144800386    0.857434347935365  0.0000
  O3     O3        0.394432909333395    0.783601190766298    0.860846772541653  0.0000
  O3     O3        0.079734204567694    0.187515661734031    0.858770971159992  0.0000
  O3     O3        0.594838644476526    0.787855184508345    0.081506007312212  0.0000
  O1     O1        0.914515749438330    0.215724556533524    0.106354473118479  0.0000
  O1     O1        0.514329687605252    0.010944055203057    0.915371688463191  0.0000
  O3     O3        0.019222797313311    0.969801500749740    0.022454820601116  0.0000
  O1     O1        0.161968826477234    0.512183937676669    0.316881421877305  0.0000
  O1     O1        0.340632283246103    0.460489895951095    0.304460477454404  0.0000
  O1     O1        0.837690462760678    0.496789095992704    0.636300072351619  0.0000
  O3     O3        0.652585992773088    0.441787606314971    0.649389410012487  0.0000
  O1     O1        0.235093988269551    0.207016689664419    0.254452956905151  0.0000
  O1     O1        0.263891600386551    0.768453270933859    0.261106431350382  0.0000
  O3     O3        0.752260141282979    0.207571616758425    0.704885566017825  0.0000
  O1     O1        0.732905458879243    0.748282219022412    0.678146908465574  0.0000
  O1     O1        0.115198544114412    0.321791948113602    0.102636078062779  0.0000
  O3     O3        0.373669279320330    0.663313939013417    0.091593070211558  0.0000
  O1     O1        0.873761055852571    0.309846069671128    0.857687139093934  0.0000
  O3     O3        0.616231727671624    0.661539925266703    0.852074845200463  0.0000
  O1     O1        0.858198611311845    0.722427766785830    0.844226877079567  0.0000
  O3     O3        0.638393378124234    0.255701304907258    0.855189057259730  0.0000
  O1     O1        0.134588978735592    0.721887138477242    0.105636330912325  0.0000
  O1     O1        0.359321347050082    0.242022428130871    0.093644454695134  0.0000
  O3     O3        0.655049570482296    0.486406139303821    0.059297406067091  0.0000
  O1     O1        0.846398877791632    0.530091894901449    0.065211240281496  0.0000
  O3     O3        0.333039814105022    0.480803491045718    0.892992447805833  0.0000
  O1     O1        0.143444017900353    0.517224726522359    0.886225302885760  0.0000
  O1     O1        0.760972936895795    0.231159572487569    0.032072214874348  0.0000
  O3     O3        0.730860840613084    0.757753296482234    0.989715381412675  0.0000
  O1     O1        0.229910237852062    0.224685308889914    0.940164681977509  0.0000
  O3     O3        0.257834275156189    0.756886559936460    0.948386277414737  0.0000
