data_c00358.vasp
_audit_creation_method             Generated by GULP
_audit_author_name                 Salvador R. G. Balestra
_symmetry_space_group_name_H-M     'P 1             '
_symmetry_Int_Tables_number        1

loop_
_symmetry_equiv_pos_site_id
_symmetry_equiv_pos_as_xyz
_cell_length_a                       17.5946
_cell_length_b                        7.7865
_cell_length_c                       10.3605
_cell_angle_alpha                   90.6705
_cell_angle_beta                    90.1515
_cell_angle_gamma                   88.7603

loop_
_atom_site_label
_atom_site_type_symbol
_atom_site_fract_x
_atom_site_fract_y
_atom_site_fract_z
_atom_site_charge
  Ge     Ge        0.052090000000021    0.000000000000000    0.372269999999958  0.0000
  Ge     Ge        0.448178150721284    0.950902300708494    0.334841115244076  0.0000
  Ge     Ge        0.949206002511753    0.936173220666275    0.625793500747023  0.0000
  Ge     Ge        0.548496476114199    0.991044591266647    0.592054086435172  0.0000
  Ge     Ge        0.544388205955380    0.009926594002983    0.072434363099237  0.0000
  Ge     Ge        0.947291606076843    0.942909665598260    0.120589135927103  0.0000
  Ge     Ge        0.433599139702288    0.950689455881938    0.826924201001033  0.0000
  Ge     Ge        0.144395711922785    0.312058544882503    0.252558508705506  0.0000
  Ge     Ge        0.353479412647528    0.637043348446919    0.252120869705781  0.0000
  Ge     Ge        0.822047085011110    0.217641879040656    0.697043938098161  0.0000
  Ge     Ge        0.668668314644485    0.695902478504066    0.692876954729722  0.0000
  Ge     Ge        0.849808068458994    0.618876660913541    0.686271200003174  0.0000
  Ge     Ge        0.173304409145731    0.715846987159889    0.260922451963679  0.0000
  Ge     Ge        0.323787211328746    0.225578845442965    0.247354947668390  0.0000
  Ge     Ge        0.646679838856821    0.321339116887833    0.014271190436821  0.0000
  Ge     Ge        0.850889181580620    0.632795317506093    0.002022085066743  0.0000
  Ge     Ge        0.165132229715145    0.714852910390396    0.950144800962990  0.0000
  Ge     Ge        0.144990857325656    0.315712295955661    0.937671330329541  0.0000
  Ge     Ge        0.671822014546114    0.725421279840085    0.005640035079173  0.0000
  Ge     Ge        0.823581443973811    0.226630502949435    0.012608515381167  0.0000
  Si     Si        0.049123711680378    0.004280474894728    0.876072021234625  0.0000
  Si     Si        0.646096122234504    0.300554727511799    0.704306130732955  0.0000
  Si     Si        0.322861600953531    0.243926198649622    0.943052957416817  0.0000
  Si     Si        0.344789112174647    0.643308484433472    0.950522621231418  0.0000
  O1     O1        0.076219267940387    0.205996136733236    0.335632317034382  0.0000
  O1     O1        0.418017646081913    0.742961728880244    0.346341435113971  0.0000
  O1     O1        0.870048202926676    0.067245049037291    0.606916752917669  0.0000
  O1     O1        0.616649426375124    0.832194376279548    0.597387733690924  0.0000
  O1     O1        0.917713428784605    0.730771923493406    0.605291259015438  0.0000
  O3     O3        0.580475390400192    0.190961661640371    0.638121522046682  0.0000
  O1     O1        0.129298430410677    0.864376488184653    0.358755216290032  0.0000
  O1     O1        0.371107978131828    0.090643910673725    0.348507259922313  0.0000
  O1     O1        0.022334511118555    0.990626692801103    0.530279604787566  0.0000
  O1     O1        0.522098280487016    0.001255360104965    0.431150297807561  0.0000
  O1     O1        0.977414199004699    0.937090576944941    0.277732905744748  0.0000
  O1     O1        0.472586741180271    0.974770110798514    0.174448535778711  0.0000
  O3     O3        0.978940657546601    0.960699334267430    0.786131999132136  0.0000
  O1     O1        0.465339033289772    0.945999090511730    0.670235212704890  0.0000
  O1     O1        0.575993147523400    0.217225301363849    0.090269892263801  0.0000
  O1     O1        0.920991423709421    0.738122296871290    0.082174063767789  0.0000
  O3     O3        0.366988086613926    0.116729975016999    0.845813120663903  0.0000
  O3     O3        0.118422714367299    0.866662760281833    0.858457453061427  0.0000
  O3     O3        0.396765333712131    0.749209624865430    0.855227382559168  0.0000
  O3     O3        0.082594603068585    0.191727032146859    0.849687731553905  0.0000
  O1     O1        0.621127986184737    0.871354507691944    0.095533047520878  0.0000
  O1     O1        0.872112338105939    0.085284115421676    0.108342495242968  0.0000
  O1     O1        0.513605023119004    0.984278951888363    0.915426198067702  0.0000
  O3     O3        0.022167692426839    0.004862278866244    0.025085298939048  0.0000
  O1     O1        0.159057847676163    0.511508226516830    0.317702880079803  0.0000
  O1     O1        0.341749337773789    0.432415482553380    0.300246814016438  0.0000
  O1     O1        0.840217681676225    0.414038427967746    0.629674744400521  0.0000
  O3     O3        0.656243088196291    0.484901272323436    0.638882714453110  0.0000
  O1     O1        0.228159999980657    0.192605221243186    0.253787159368606  0.0000
  O1     O1        0.268671519118452    0.751310756539064    0.258835159959792  0.0000
  O3     O3        0.724461448222722    0.188742101965101    0.695579094402428  0.0000
  O1     O1        0.764307902892868    0.731282635616251    0.681595005231559  0.0000
  O1     O1        0.116771719787887    0.339459615868520    0.095168832629110  0.0000
  O3     O3        0.382661315184289    0.641837886529963    0.091273249447087  0.0000
  O1     O1        0.852301163486431    0.204580583564717    0.854648866334922  0.0000
  O1     O1        0.639591154668469    0.733319501178020    0.848372794564489  0.0000
  O1     O1        0.877292238841127    0.600944650369743    0.844729831628660  0.0000
  O3     O3        0.625681925997213    0.344847696120543    0.851423188014646  0.0000
  O1     O1        0.135289734674805    0.731039448974535    0.107477410376620  0.0000
  O3     O3        0.353635878419641    0.209256984926895    0.086828360855527  0.0000
  O1     O1        0.658548959101397    0.524426511988049    0.071249859362077  0.0000
  O1     O1        0.837235020462352    0.434613553369183    0.066296889940610  0.0000
  O2     O2        0.334464647125362    0.444491896632693    0.905249075385048  0.0000
  O1     O1        0.146590741285172    0.518990798563756    0.878901889140289  0.0000
  O1     O1        0.727737673583176    0.194401251859302    0.023240163265659  0.0000
  O1     O1        0.768143412135849    0.756634769212922    0.006355284539445  0.0000
  O3     O3        0.233304268756206    0.211967137641217    0.936684311389295  0.0000
  O3     O3        0.262584803810282    0.737650967602493    0.955395927968049  0.0000
