data_c00376.vasp
_audit_creation_method             Generated by GULP
_audit_author_name                 Salvador R. G. Balestra
_symmetry_space_group_name_H-M     'P 1             '
_symmetry_Int_Tables_number        1

loop_
_symmetry_equiv_pos_site_id
_symmetry_equiv_pos_as_xyz
_cell_length_a                       17.5274
_cell_length_b                        7.8481
_cell_length_c                       10.2757
_cell_angle_alpha                   89.4862
_cell_angle_beta                    90.7758
_cell_angle_gamma                   92.0109

loop_
_atom_site_label
_atom_site_type_symbol
_atom_site_fract_x
_atom_site_fract_y
_atom_site_fract_z
_atom_site_charge
  Ge     Ge        0.052090000000021    0.000000000000000    0.372269999999958  0.0000
  Ge     Ge        0.443648319835407    0.062057531853841    0.325088435870013  0.0000
  Ge     Ge        0.944568194610813    0.054510846680925    0.620200479344231  0.0000
  Ge     Ge        0.545094764054010    0.005751504489730    0.583595104741037  0.0000
  Ge     Ge        0.544696434781322    0.991668186297504    0.071838483138543  0.0000
  Ge     Ge        0.945291315597471    0.057604606401898    0.117992717612243  0.0000
  Ge     Ge        0.435111306835327    0.052234215453850    0.824307717930101  0.0000
  Ge     Ge        0.169899962937396    0.290097422650634    0.255650252435088  0.0000
  Ge     Ge        0.324285727630671    0.765393915285610    0.251026202795488  0.0000
  Ge     Ge        0.844124460064724    0.367892772232006    0.684797377122460  0.0000
  Ge     Ge        0.636936159717275    0.685888482916265    0.694360110516468  0.0000
  Ge     Ge        0.820201256473971    0.765587295412437    0.686682669148891  0.0000
  Ge     Ge        0.142081866120724    0.687866580227285    0.256967666638431  0.0000
  Ge     Ge        0.671509938129690    0.281977707502204    0.007764067797225  0.0000
  Ge     Ge        0.823033720912717    0.769693753782982    0.002818906224162  0.0000
  Ge     Ge        0.345158167197513    0.367027771096138    0.943731839591689  0.0000
  Ge     Ge        0.141029188601498    0.690542313068385    0.940588665960302  0.0000
  Ge     Ge        0.161591836792714    0.291596457406814    0.941254485229481  0.0000
  Ge     Ge        0.641444867017940    0.680822848117016    0.008842524264865  0.0000
  Ge     Ge        0.851771799022708    0.368686927942333    0.002734339294514  0.0000
  Si     Si        0.045163188663408    0.997829263622106    0.872223351561153  0.0000
  Si     Si        0.665361279049641    0.292800447097140    0.697252449914028  0.0000
  Si     Si        0.348627293015000    0.369648774014785    0.249418252114814  0.0000
  Si     Si        0.321141510904618    0.764454435772676    0.943979670871945  0.0000
  O1     O1        0.131188282871050    0.131481927834128    0.349995278809430  0.0000
  O1     O1        0.374930046525657    0.902333571157685    0.349291023183569  0.0000
  O1     O1        0.907233139175513    0.252201361843824    0.599336558496727  0.0000
  O1     O1        0.572654310691175    0.799535562633152    0.604537458551836  0.0000
  O1     O1        0.870533252652810    0.910032692211628    0.593027171555283  0.0000
  O3     O3        0.620107432919625    0.146386868262596    0.618606472310510  0.0000
  O1     O1        0.076405452459960    0.794266309270335    0.343716281068026  0.0000
  O3     O3        0.405208744014224    0.261920848314809    0.339453709587931  0.0000
  O1     O1        0.022850240369083    0.020498597462246    0.530150069115822  0.0000
  O1     O1        0.521613352036506    0.037679716948591    0.421715161003378  0.0000
  O1     O1        0.975892009065230    0.056155950738883    0.276895238068065  0.0000
  O1     O1        0.469960550620517    0.039058021923100    0.165347046805340  0.0000
  O3     O3        0.972416414325060    0.031702519061461    0.783360333898495  0.0000
  O1     O1        0.462523084738164    0.044322320934437    0.664692379893984  0.0000
  O1     O1        0.620804504635668    0.134797300311243    0.094964204791517  0.0000
  O1     O1        0.868090281063028    0.920140786389745    0.098282537340518  0.0000
  O1     O1        0.407764013136871    0.256951521558991    0.854646295880854  0.0000
  O3     O3        0.081161210652399    0.814590429440285    0.847850158633509  0.0000
  O3     O3        0.360560782338334    0.906288491085344    0.852400504901976  0.0000
  O3     O3        0.110898398003903    0.143327687830557    0.849248760171807  0.0000
  O1     O1        0.578463483646324    0.791337198710197    0.099144494818221  0.0000
  O1     O1        0.921693096713124    0.263613174478545    0.083949036149363  0.0000
  O1     O1        0.515272290437235    0.004622815542911    0.911311602944784  0.0000
  O3     O3        0.020292658216672    0.996779109842620    0.023110614846635  0.0000
  O1     O1        0.151833529780424    0.486157398923287    0.319208062632286  0.0000
  O3     O3        0.339013222916446    0.557095780386018    0.304188692185027  0.0000
  O1     O1        0.835790969154390    0.567378532804471    0.622148237631856  0.0000
  O3     O3        0.648037435770098    0.479519005415578    0.638491009987074  0.0000
  O3     O3        0.267111184327526    0.267527375216509    0.242888380064070  0.0000
  O1     O1        0.228870644773817    0.798602367807555    0.261042507554795  0.0000
  O3     O3        0.755391972215330    0.261414431616958    0.689938064072118  0.0000
  O1     O1        0.723958072385026    0.793840656560123    0.685528795672610  0.0000
  O1     O1        0.132490834225709    0.277398971186683    0.100295819528117  0.0000
  O3     O3        0.354262195188394    0.784112400857479    0.090591465562177  0.0000
  O1     O1        0.876391351778636    0.387662678503644    0.842419641558492  0.0000
  O1     O1        0.606532567667789    0.672606499951224    0.851163326322832  0.0000
  O1     O1        0.853554492191143    0.780842195549465    0.844791817279583  0.0000
  O3     O3        0.639772892865403    0.286444968919774    0.846854233542054  0.0000
  O1     O1        0.111286019648705    0.669026104140160    0.098276779489169  0.0000
  O3     O3        0.379421547155162    0.378294267477226    0.102357386793303  0.0000
  O1     O1        0.655568618511292    0.482158366236933    0.069401255672285  0.0000
  O1     O1        0.840498292725744    0.568242462042749    0.063442983870745  0.0000
  O3     O3        0.336418194224557    0.575917780765727    0.890457839911293  0.0000
  O1     O1        0.144157374677378    0.491112029776422    0.877440036051286  0.0000
  O1     O1        0.767214077436005    0.249584158528015    0.014443547011285  0.0000
  O1     O1        0.726637043587980    0.797304323255442    0.002792101396877  0.0000
  O1     O1        0.257754125790844    0.262580207309226    0.934076936838338  0.0000
  O3     O3        0.230831565805955    0.790079477124454    0.947674943463942  0.0000
