data_c00348.vasp
_audit_creation_method             Generated by GULP
_audit_author_name                 Salvador R. G. Balestra
_symmetry_space_group_name_H-M     'P 1             '
_symmetry_Int_Tables_number        1

loop_
_symmetry_equiv_pos_site_id
_symmetry_equiv_pos_as_xyz
_cell_length_a                       17.6303
_cell_length_b                        7.8173
_cell_length_c                       10.1606
_cell_angle_alpha                   91.5147
_cell_angle_beta                    90.5592
_cell_angle_gamma                   88.8008

loop_
_atom_site_label
_atom_site_type_symbol
_atom_site_fract_x
_atom_site_fract_y
_atom_site_fract_z
_atom_site_charge
  Ge     Ge        0.052090000000021    0.000000000000000    0.372269999999958  0.0000
  Ge     Ge        0.453323091273760    0.947415074675536    0.367045668509485  0.0000
  Ge     Ge        0.949826380064417    0.908461399668611    0.618613974923391  0.0000
  Ge     Ge        0.557549891604882    0.964369540605585    0.623663697081003  0.0000
  Ge     Ge        0.551642056595617    0.999220317183957    0.103827407606013  0.0000
  Ge     Ge        0.954307029986307    0.946713567485493    0.104815142640679  0.0000
  Ge     Ge        0.440767565968514    0.931449584987053    0.854346417106569  0.0000
  Ge     Ge        0.149360447689059    0.307660800547662    0.292622439745477  0.0000
  Ge     Ge        0.353248414461272    0.633076448086527    0.294214136357993  0.0000
  Ge     Ge        0.826264556370827    0.197364632060348    0.734224849481103  0.0000
  Ge     Ge        0.673072681070785    0.665888017036998    0.720286452163554  0.0000
  Ge     Ge        0.858696200349746    0.594527705437544    0.718782218391560  0.0000
  Ge     Ge        0.174754661405336    0.712672028414315    0.297680002990967  0.0000
  Ge     Ge        0.329266462916114    0.225579508270685    0.286164194986436  0.0000
  Ge     Ge        0.658258711717125    0.309841772524475    0.059471391514007  0.0000
  Ge     Ge        0.856445493480324    0.626378952218348    0.034823731675786  0.0000
  Ge     Ge        0.326786405932525    0.230840114947703    0.969334025827139  0.0000
  Ge     Ge        0.171362510749431    0.704908197624690    0.977373231128659  0.0000
  Ge     Ge        0.144188321192730    0.302825321275759    0.973704464537645  0.0000
  Ge     Ge        0.674752847953653    0.706762406089527    0.035003282181005  0.0000
  Si     Si        0.057621334566863    0.986298621420197    0.856828694562319  0.0000
  Si     Si        0.652870918670401    0.277513129497939    0.737243931113721  0.0000
  Si     Si        0.349232805196108    0.629006662165571    0.980056986022849  0.0000
  Si     Si        0.830155531688931    0.233061832666604    0.054957386637040  0.0000
  O1     O1        0.088634874178911    0.200592679811815    0.391076289143959  0.0000
  O1     O1        0.420567752383109    0.742807396621447    0.381842786199314  0.0000
  O1     O1        0.870529206441196    0.021932115455031    0.668071334722381  0.0000
  O1     O1        0.626715770833263    0.809409521584210    0.620766331697545  0.0000
  O1     O1        0.923477209631973    0.699867700363743    0.625811015658406  0.0000
  O3     O3        0.583959508221208    0.160719149142197    0.691871428294311  0.0000
  O1     O1        0.122890895276042    0.849013678364409    0.396983392705242  0.0000
  O1     O1        0.378605427895495    0.091087648419249    0.386669784829419  0.0000
  O1     O1        0.973183777288887    0.961187274403370    0.460991315737490  0.0000
  O1     O1        0.530389982607747    0.992692702557040    0.461429640505864  0.0000
  O1     O1        0.028422048066543    0.984330550708950    0.206307205959679  0.0000
  O1     O1        0.478305785508962    0.962993605344914    0.203478684278799  0.0000
  O3     O3        0.031634510542389    0.961511689194575    0.705803827111297  0.0000
  O1     O1        0.474128209113512    0.908840820418744    0.696451908104456  0.0000
  O1     O1        0.586476302940022    0.203950816845031    0.126889856791489  0.0000
  O1     O1        0.915838552410441    0.750084263559489    0.129285426801961  0.0000
  O1     O1        0.371067216120055    0.087632484726135    0.864301831140934  0.0000
  O3     O3        0.130039695971525    0.864684545306692    0.886313095221324  0.0000
  O3     O3        0.409141556008594    0.733188277299410    0.899289762314740  0.0000
  O3     O3        0.079103619237000    0.183006339227171    0.884558576335342  0.0000
  O1     O1        0.627742521621438    0.861662272556130    0.125112531575930  0.0000
  O3     O3        0.884715802705911    0.104234978338301    0.131356940694066  0.0000
  O1     O1        0.519544529687304    0.986773703326936    0.944027560184597  0.0000
  O3     O3        0.985349837211374    0.939055619807426    0.942947969573079  0.0000
  O1     O1        0.164351507558230    0.508294286500156    0.354652091189545  0.0000
  O1     O1        0.341989613911068    0.431666721126581    0.348160809729660  0.0000
  O1     O1        0.853638067965310    0.384329577728047    0.665488748793971  0.0000
  O3     O3        0.652880902262046    0.458171041091091    0.664955326935389  0.0000
  O1     O1        0.233575197476135    0.190505102603671    0.283483571214561  0.0000
  O1     O1        0.269839623788209    0.752552447346675    0.302220059375176  0.0000
  O3     O3        0.730050327343629    0.168981112774564    0.708517185714117  0.0000
  O1     O1        0.769308615616119    0.687236677955247    0.712214902662803  0.0000
  O1     O1        0.114973644207325    0.323708131423652    0.133866420207921  0.0000
  O3     O3        0.378125668710173    0.611364947264811    0.129343448846682  0.0000
  O3     O3        0.847215443756725    0.217147278788955    0.899804965832979  0.0000
  O1     O1        0.639995846641620    0.713784828862682    0.875547328765751  0.0000
  O1     O1        0.891394117716874    0.604630916108442    0.878430063069549  0.0000
  O3     O3        0.651608824571816    0.334273005559040    0.890316535874629  0.0000
  O1     O1        0.141790120826081    0.721477326669962    0.137209817934451  0.0000
  O1     O1        0.361461496095552    0.204910625827042    0.126045834054521  0.0000
  O1     O1        0.659789202467998    0.517226352363946    0.113841443392021  0.0000
  O3     O3        0.845057278833558    0.428724242825981    0.102722545128548  0.0000
  O3     O3        0.339702861175352    0.439283119767633    0.918485944447745  0.0000
  O1     O1        0.149299153213287    0.505924673425842    0.913467367901597  0.0000
  O3     O3        0.742932484274981    0.195948617303314    0.084580142360663  0.0000
  O1     O1        0.770516894948278    0.734029407052658    0.025066664733241  0.0000
  O1     O1        0.230933569955721    0.200107357686776    0.968225267351279  0.0000
  O3     O3        0.268559723302273    0.730563415718446    0.977648804126265  0.0000
