data_c00300.vasp
_audit_creation_method             Generated by GULP
_audit_author_name                 Salvador R. G. Balestra
_symmetry_space_group_name_H-M     'P 1             '
_symmetry_Int_Tables_number        1

loop_
_symmetry_equiv_pos_site_id
_symmetry_equiv_pos_as_xyz
_cell_length_a                       17.6208
_cell_length_b                        7.8399
_cell_length_c                       10.2752
_cell_angle_alpha                   89.4389
_cell_angle_beta                    91.3458
_cell_angle_gamma                   88.0172

loop_
_atom_site_label
_atom_site_type_symbol
_atom_site_fract_x
_atom_site_fract_y
_atom_site_fract_z
_atom_site_charge
  Ge     Ge        0.052090000000021    0.000000000000000    0.372269999999958  0.0000
  Ge     Ge        0.445274154732336    0.958067590839220    0.397079820249370  0.0000
  Ge     Ge        0.948535993944898    0.954086334072417    0.626569200930148  0.0000
  Ge     Ge        0.546571550176649    0.021585299680632    0.652770038946836  0.0000
  Ge     Ge        0.554666261799003    0.016468756009841    0.158750527412922  0.0000
  Ge     Ge        0.948219644821309    0.950784589271589    0.110243105410058  0.0000
  Ge     Ge        0.445842374632827    0.958111434740658    0.907183144038573  0.0000
  Ge     Ge        0.148149213422401    0.314652400399338    0.295033742218157  0.0000
  Ge     Ge        0.354792069768686    0.641356876683773    0.285103221365298  0.0000
  Ge     Ge        0.825781527777229    0.243880688157678    0.733585515250879  0.0000
  Ge     Ge        0.672019419085278    0.734736568688297    0.725812981746511  0.0000
  Ge     Ge        0.851322122431160    0.646599724864113    0.734632192201762  0.0000
  Ge     Ge        0.645872566880722    0.331828876623261    0.725141599451547  0.0000
  Ge     Ge        0.173916222144701    0.712469886475375    0.299018907553382  0.0000
  Ge     Ge        0.645242823777502    0.330642813720937    0.043855069887119  0.0000
  Ge     Ge        0.322251904187513    0.251969529416159    0.971189731499113  0.0000
  Ge     Ge        0.342873913352252    0.651383263067480    0.967751841449755  0.0000
  Ge     Ge        0.140100248502917    0.319254285585829    0.982352582780254  0.0000
  Ge     Ge        0.673508079961313    0.730693381991701    0.042458689032682  0.0000
  Ge     Ge        0.827011491333852    0.249970843930479    0.049427352968735  0.0000
  Si     Si        0.051571990893641    0.007752054048212    0.870902000065709  0.0000
  Si     Si        0.327809991471840    0.247675884501454    0.279043732033872  0.0000
  Si     Si        0.850422652295805    0.642396932096457    0.044430726062887  0.0000
  Si     Si        0.164445980876897    0.715261323023592    0.986577633193560  0.0000
  O1     O1        0.090361448620743    0.197034695833884    0.389393480238684  0.0000
  O1     O1        0.421409927380397    0.750412524655132    0.371805996397705  0.0000
  O1     O1        0.874464081063224    0.097766369881696    0.642396942865852  0.0000
  O1     O1        0.620308916360123    0.875976311744151    0.629086804742300  0.0000
  O1     O1        0.920342528144235    0.750705552030437    0.655442055454932  0.0000
  O1     O1        0.579867245236404    0.223485242232046    0.635971410915106  0.0000
  O1     O1        0.126313904472226    0.853252665882305    0.394230207305255  0.0000
  O3     O3        0.369410454507829    0.096119939772778    0.360270832634977  0.0000
  O1     O1        0.976640508757021    0.968611962605200    0.467573186904304  0.0000
  O1     O1        0.468253096278663    0.983750655010499    0.559238574429373  0.0000
  O1     O1        0.023860713807448    0.970642459979662    0.211881076995521  0.0000
  O1     O1        0.526410122697386    0.006332286303187    0.317377561504898  0.0000
  O3     O3        0.029173052735844    0.995477546017234    0.719472386345468  0.0000
  O1     O1        0.521086932341492    0.996252667887126    0.813580123692082  0.0000
  O1     O1        0.577860586979051    0.223023962184199    0.124832624981744  0.0000
  O3     O3        0.910305687769807    0.749777858352371    0.125813140821035  0.0000
  O1     O1        0.373702774740642    0.110158894115054    0.883421223793364  0.0000
  O2     O2        0.117774356983384    0.867892874570105    0.911237151420493  0.0000
  O1     O1        0.403060334909333    0.767332287998491    0.877757399310410  0.0000
  O3     O3        0.076951132864818    0.200236144477130    0.893652473200829  0.0000
  O1     O1        0.633708286757058    0.886004295937876    0.135990003523469  0.0000
  O1     O1        0.879825507129422    0.106402216023764    0.142322355366226  0.0000
  O1     O1        0.478528904424202    0.953771577834275    0.066625597022106  0.0000
  O3     O3        0.976334638067003    0.970339218074567    0.949960627090974  0.0000
  O1     O1        0.156455444392727    0.511552334043410    0.358816637005588  0.0000
  O3     O3        0.346424347348185    0.431900823286457    0.338915044120547  0.0000
  O1     O1        0.839486161491877    0.446985704920630    0.673705045046072  0.0000
  O1     O1        0.658420970841196    0.532131295377603    0.666059208545794  0.0000
  O3     O3        0.238094229407451    0.219654593576749    0.278429309305027  0.0000
  O1     O1        0.268788958971304    0.746948085911910    0.304773610029541  0.0000
  O1     O1        0.729886915170800    0.211908565548648    0.726765905421943  0.0000
  O1     O1        0.767771823521955    0.767215279989857    0.722336955731208  0.0000
  O1     O1        0.110083332399626    0.320032604036825    0.138934759338279  0.0000
  O1     O1        0.378456905167423    0.641574482914544    0.125219266279277  0.0000
  O1     O1        0.856518793255851    0.226035959454204    0.892518473059207  0.0000
  O1     O1        0.641133062895316    0.748896338437190    0.883668634690738  0.0000
  O3     O3        0.877097856353509    0.616366105048338    0.897024966823415  0.0000
  O1     O1        0.617313199736750    0.350641529203997    0.883366576970099  0.0000
  O3     O3        0.142502431450955    0.712665172115265    0.137121488801698  0.0000
  O3     O3        0.356561713576323    0.244540180801210    0.131480332755960  0.0000
  O1     O1        0.653139423472560    0.532953054107766    0.103804179804019  0.0000
  O3     O3        0.840323327833123    0.456469612597386    0.106185484086436  0.0000
  O1     O1        0.336274754204064    0.451957767378480    0.907113833085537  0.0000
  O3     O3        0.146042974186064    0.529785869887183    0.928199048947821  0.0000
  O1     O1        0.731427731645236    0.219486236862237    0.055607555035500  0.0000
  O3     O3        0.770916147561082    0.750921244790061    0.039496518468781  0.0000
  O1     O1        0.227296905868935    0.218459370546115    0.967908087866911  0.0000
  O3     O3        0.253005406455683    0.749930766698008    0.974151587959916  0.0000
