data_c00308.vasp
_audit_creation_method             Generated by GULP
_audit_author_name                 Salvador R. G. Balestra
_symmetry_space_group_name_H-M     'P 1             '
_symmetry_Int_Tables_number        1

loop_
_symmetry_equiv_pos_site_id
_symmetry_equiv_pos_as_xyz
_cell_length_a                       17.5236
_cell_length_b                        7.8160
_cell_length_c                       10.3415
_cell_angle_alpha                   89.5571
_cell_angle_beta                    91.0079
_cell_angle_gamma                   88.5029

loop_
_atom_site_label
_atom_site_type_symbol
_atom_site_fract_x
_atom_site_fract_y
_atom_site_fract_z
_atom_site_charge
  Ge     Ge        0.052090000000021    0.000000000000000    0.372269999999958  0.0000
  Ge     Ge        0.444860969152828    0.958958026563763    0.358074230416665  0.0000
  Ge     Ge        0.947602644840131    0.955243141055425    0.624495420719559  0.0000
  Ge     Ge        0.544824975101170    0.018920230334614    0.615905592815556  0.0000
  Ge     Ge        0.556118323327751    0.012512589195667    0.120894586969253  0.0000
  Ge     Ge        0.939252035056588    0.948667409838803    0.125473299056484  0.0000
  Ge     Ge        0.445453161934140    0.956209095340064    0.872592403025725  0.0000
  Ge     Ge        0.145193565236104    0.317788519346653    0.256918289628149  0.0000
  Ge     Ge        0.355250149870145    0.636610884359261    0.247184496228501  0.0000
  Ge     Ge        0.823690490942834    0.237136847369489    0.698953998039439  0.0000
  Ge     Ge        0.669416493247069    0.734911602042452    0.695919377103888  0.0000
  Ge     Ge        0.848820122650888    0.643678143458810    0.699580539758955  0.0000
  Ge     Ge        0.644428942155089    0.327903710406179    0.693792079537707  0.0000
  Ge     Ge        0.172558652701424    0.715841851544385    0.262668234730033  0.0000
  Ge     Ge        0.318686729247641    0.244743220765417    0.938740321196649  0.0000
  Ge     Ge        0.161551007475002    0.727818866443219    0.949556059206691  0.0000
  Ge     Ge        0.343353303793434    0.647571808526300    0.934885279668141  0.0000
  Ge     Ge        0.138489873714147    0.324851610842080    0.941446211279446  0.0000
  Ge     Ge        0.671051932811038    0.718840845558177    0.007966726526320  0.0000
  Ge     Ge        0.823102349669752    0.244696329975863    0.011642002805460  0.0000
  Si     Si        0.040865507630562    0.017062225682301    0.881805209062076  0.0000
  Si     Si        0.324323339529449    0.243162018486550    0.246548505425203  0.0000
  Si     Si        0.644254077927460    0.324292854916165    0.001906215328508  0.0000
  Si     Si        0.849921482102117    0.638669012526846    0.006794031153570  0.0000
  O1     O1        0.079586916623478    0.204248403034848    0.338968127733688  0.0000
  O1     O1        0.421716422952062    0.749719781087301    0.332395982579843  0.0000
  O1     O1        0.873470738198476    0.101513627421305    0.600778199330326  0.0000
  O1     O1        0.618868504843635    0.872426166036957    0.596000696804157  0.0000
  O1     O1        0.914818364883905    0.750989504082761    0.612360176714888  0.0000
  O1     O1        0.577838677704850    0.223266725405817    0.603403834618609  0.0000
  O1     O1        0.129768857948866    0.865982162785474    0.358071880900243  0.0000
  O3     O3        0.367125117442801    0.093129230903903    0.326451821334580  0.0000
  O1     O1        0.023410524623575    0.992192897593118    0.530862626043687  0.0000
  O1     O1        0.467920230169844    0.981400684044070    0.519754148944712  0.0000
  O1     O1        0.974081889535887    0.941476261177999    0.281313103919477  0.0000
  O1     O1        0.525528539598730    0.015250980572916    0.277921499637077  0.0000
  O3     O3        0.971327856760428    0.979396737659701    0.787822686475782  0.0000
  O1     O1        0.519493128074275    0.995247283743329    0.775912262771493  0.0000
  O3     O3        0.583270906397080    0.217171987442335    0.079586083712147  0.0000
  O3     O3        0.910585125144978    0.744351340947575    0.088612405795701  0.0000
  O1     O1        0.372127362539513    0.106335371911960    0.851108250500044  0.0000
  O3     O3        0.109632553237629    0.879135575822227    0.861152462451171  0.0000
  O1     O1        0.405514686634099    0.760574428536543    0.844374965623544  0.0000
  O3     O3        0.071520533244759    0.207334868287050    0.858178968031223  0.0000
  O1     O1        0.630057899860475    0.864766266257494    0.108383361326805  0.0000
  O1     O1        0.865458298476629    0.097224492702545    0.113953859370505  0.0000
  O1     O1        0.478160179835478    0.956144894820445    0.030797094800789  0.0000
  O3     O3        0.014289066473354    0.007273332915331    0.030458245779300  0.0000
  O1     O1        0.155175620221401    0.515219080414362    0.323850061055176  0.0000
  O3     O3        0.344356044815465    0.428719322662731    0.304227319438144  0.0000
  O1     O1        0.835758062372329    0.443611801770364    0.642183117632107  0.0000
  O1     O1        0.656902751168067    0.529845975699693    0.638302543394645  0.0000
  O3     O3        0.234062006701618    0.213623503446348    0.252599783560794  0.0000
  O1     O1        0.268758101401946    0.743655436901798    0.258544794015324  0.0000
  O1     O1        0.727299939880460    0.204385245816932    0.692081702450537  0.0000
  O1     O1        0.765763515704780    0.767319628817999    0.694837380310500  0.0000
  O1     O1        0.114057709446732    0.346236999086486    0.100419095034059  0.0000
  O1     O1        0.381280393374856    0.628900060581468    0.089472287879731  0.0000
  O1     O1        0.854718868075054    0.215849898864845    0.857725922473789  0.0000
  O1     O1        0.637613747531899    0.751949264946327    0.852825941533821  0.0000
  O3     O3        0.877589967043580    0.618932425633008    0.860383529298312  0.0000
  O3     O3        0.616590744994414    0.346715870181151    0.853745283425274  0.0000
  O1     O1        0.134478984412594    0.734536543366733    0.108381670000694  0.0000
  O3     O3        0.351154795538431    0.238072531610882    0.098528712129082  0.0000
  O3     O3        0.652217391510185    0.512673220127338    0.060987598995657  0.0000
  O3     O3        0.841769297883945    0.449741882751755    0.066130738263194  0.0000
  O1     O1        0.329069952593645    0.448295901440298    0.876127562554060  0.0000
  O1     O1        0.145982048214631    0.528425260191984    0.883046732119544  0.0000
  O3     O3        0.725160241281370    0.221263342458014    0.008568725604913  0.0000
  O3     O3        0.768924301714014    0.741572676227945    0.007132287294637  0.0000
  O1     O1        0.223134900653735    0.208150941088781    0.933514205446842  0.0000
  O1     O1        0.257639734538867    0.761135744972117    0.943803843866788  0.0000
