data_c00354.vasp
_audit_creation_method             Generated by GULP
_audit_author_name                 Salvador R. G. Balestra
_symmetry_space_group_name_H-M     'P 1             '
_symmetry_Int_Tables_number        1

loop_
_symmetry_equiv_pos_site_id
_symmetry_equiv_pos_as_xyz
_cell_length_a                       17.3460
_cell_length_b                        7.7941
_cell_length_c                       10.6303
_cell_angle_alpha                   91.6329
_cell_angle_beta                    90.7556
_cell_angle_gamma                   90.5293

loop_
_atom_site_label
_atom_site_type_symbol
_atom_site_fract_x
_atom_site_fract_y
_atom_site_fract_z
_atom_site_charge
  Ge     Ge        0.052090000000021    0.000000000000000    0.372269999999958  0.0000
  Ge     Ge        0.465215530578486    0.039931529956953    0.363169042261629  0.0000
  Ge     Ge        0.950423881189354    0.940153833458049    0.622771500734245  0.0000
  Ge     Ge        0.549904827842462    0.986034688694910    0.634060987539860  0.0000
  Ge     Ge        0.553712108991280    0.029781156377436    0.091737712425100  0.0000
  Ge     Ge        0.952701295621228    0.995664806303769    0.105248833969938  0.0000
  Ge     Ge        0.432368516110242    0.009281103047829    0.855464585774754  0.0000
  Ge     Ge        0.173896721215266    0.274159458173844    0.275713975411698  0.0000
  Ge     Ge        0.336732325041140    0.760491446457970    0.279285489338245  0.0000
  Ge     Ge        0.823439005337889    0.215762712477056    0.737033970187120  0.0000
  Ge     Ge        0.666582942961751    0.681662800148594    0.698177856762880  0.0000
  Ge     Ge        0.852533207874365    0.627623274789933    0.703400312002541  0.0000
  Ge     Ge        0.155221056943620    0.693306698220410    0.290428004002727  0.0000
  Ge     Ge        0.357200693392240    0.336686306171582    0.263819050176720  0.0000
  Ge     Ge        0.650102445646814    0.365180383917506    0.038824323964098  0.0000
  Ge     Ge        0.859522603910518    0.667398298504152    0.005797732841212  0.0000
  Ge     Ge        0.353824231888285    0.349329469054232    0.959986192788804  0.0000
  Ge     Ge        0.162719124690392    0.301547772422407    0.968656374994498  0.0000
  Ge     Ge        0.675055420849297    0.751962161268308    0.006886730351062  0.0000
  Ge     Ge        0.824081586275124    0.263642385618293    0.038113102316213  0.0000
  Si     Si        0.059094574648017    0.001448186709626    0.866649202087149  0.0000
  Si     Si        0.652500503893575    0.298855591513174    0.737617956924431  0.0000
  Si     Si        0.145853943732526    0.692430332779281    0.996740185695800  0.0000
  Si     Si        0.330208450683063    0.744572872336323    0.986069641848994  0.0000
  O1     O1        0.125960469059456    0.150564777366807    0.379061475178637  0.0000
  O1     O1        0.393795581479274    0.886147904469675    0.377089614210132  0.0000
  O1     O1        0.869730931401407    0.055923987367707    0.657374623490529  0.0000
  O1     O1        0.610195758075087    0.816773570281295    0.612006490608459  0.0000
  O1     O1        0.918863651637173    0.730455684813577    0.611638098062581  0.0000
  O3     O3        0.586085335941487    0.155727858096883    0.730057430024318  0.0000
  O1     O1        0.090438012554281    0.798443566076582    0.383789426287305  0.0000
  O1     O1        0.425557761327453    0.239188015945306    0.352847854201623  0.0000
  O1     O1        0.983082711911518    0.018437250975070    0.483270110831481  0.0000
  O1     O1        0.528636406051029    0.053406596035684    0.486830457325835  0.0000
  O1     O1        0.015990762973846    0.037172085157536    0.224402656980010  0.0000
  O1     O1        0.515192654237978    0.979638128619699    0.231203363904035  0.0000
  O3     O3        0.027413485441767    0.963584955647938    0.727426243759338  0.0000
  O1     O1        0.465525579505967    0.942880525143680    0.711694050290699  0.0000
  O1     O1        0.572414677517129    0.247053597745881    0.080893826943255  0.0000
  O1     O1        0.924421792573005    0.784087136708690    0.096403469422301  0.0000
  O1     O1        0.408401289418797    0.222746341106387    0.861296339816574  0.0000
  O2     O2        0.105665188697756    0.835398172581295    0.914404968588588  0.0000
  O3     O3        0.348516260744632    0.892980781832803    0.891498066763241  0.0000
  O3     O3        0.118026328105677    0.160313656402095    0.863274970568349  0.0000
  O1     O1        0.643017893558993    0.936113021484449    0.076878032494024  0.0000
  O1     O1        0.874542435782131    0.126073966618360    0.129573802200234  0.0000
  O1     O1        0.499614349049600    0.953749068070909    0.966286063222576  0.0000
  O3     O3        0.990613390798386    0.049656432167500    0.959922170417652  0.0000
  O1     O1        0.164950266354092    0.485625160829229    0.327864258453435  0.0000
  O1     O1        0.348481155704534    0.546328134291963    0.309384520133175  0.0000
  O1     O1        0.867661103502372    0.411203208000389    0.713048843756433  0.0000
  O3     O3        0.625756136855747    0.476857927146717    0.678726646067557  0.0000
  O1     O1        0.270619159269395    0.229690120446870    0.276228127917437  0.0000
  O1     O1        0.241432384908114    0.804105914719523    0.302205560835827  0.0000
  O3     O3        0.729565842383000    0.224923392001141    0.674345282610078  0.0000
  O1     O1        0.759916962973720    0.663069128163482    0.649601934853717  0.0000
  O1     O1        0.142266446443905    0.254814031113602    0.121255918066614  0.0000
  O3     O3        0.363280663027653    0.795717414288061    0.124579723955079  0.0000
  O1     O1        0.818624092721254    0.162564836668550    0.891458896158677  0.0000
  O1     O1        0.664562101172638    0.771526069115554    0.846824220394061  0.0000
  O1     O1        0.865835281425593    0.722206741018342    0.850664731968569  0.0000
  O3     O3        0.678074534707773    0.353841831866101    0.880560607936272  0.0000
  O3     O3        0.116870603598047    0.711428835065223    0.138087276724352  0.0000
  O1     O1        0.385341028219402    0.308867661401709    0.109703301687519  0.0000
  O1     O1        0.625236430786656    0.575229298048131    0.060254204962139  0.0000
  O1     O1        0.874772386714493    0.453065657122975    0.021655365516591  0.0000
  O3     O3        0.366262863018554    0.566307975282329    0.934256939558886  0.0000
  O3     O3        0.127640088702508    0.505567885623502    0.938400075587965  0.0000
  O1     O1        0.736208389849364    0.305208157194281    0.105968521717972  0.0000
  O1     O1        0.767757932252557    0.714259901410712    0.053193871323311  0.0000
  O1     O1        0.259007859019818    0.290977417979594    0.941594967715711  0.0000
  O2     O2        0.239186750449721    0.708654380619206    0.006653021920479  0.0000
