data_c00337.vasp
_audit_creation_method             Generated by GULP
_audit_author_name                 Salvador R. G. Balestra
_symmetry_space_group_name_H-M     'P 1             '
_symmetry_Int_Tables_number        1

loop_
_symmetry_equiv_pos_site_id
_symmetry_equiv_pos_as_xyz
_cell_length_a                       17.6220
_cell_length_b                        7.8019
_cell_length_c                       10.2450
_cell_angle_alpha                   89.6673
_cell_angle_beta                    90.3950
_cell_angle_gamma                   90.8427

loop_
_atom_site_label
_atom_site_type_symbol
_atom_site_fract_x
_atom_site_fract_y
_atom_site_fract_z
_atom_site_charge
  Ge     Ge        0.052090000000021    0.000000000000000    0.372269999999958  0.0000
  Ge     Ge        0.437191952983054    0.051103525127193    0.370768122002413  0.0000
  Ge     Ge        0.946985602908253    0.043970285802333    0.624727435729362  0.0000
  Ge     Ge        0.544575317589316    0.999310121277776    0.619781674050478  0.0000
  Ge     Ge        0.549813355053265    0.991572001614624    0.131466918030571  0.0000
  Ge     Ge        0.938139582326943    0.046542645169069    0.128634798373102  0.0000
  Ge     Ge        0.444589622860240    0.054183139247047    0.877889281362882  0.0000
  Ge     Ge        0.167429074527042    0.294118293376278    0.264882816564296  0.0000
  Ge     Ge        0.320158858901372    0.757669244321628    0.258964248977154  0.0000
  Ge     Ge        0.848523145067055    0.358700094288699    0.696635810845453  0.0000
  Ge     Ge        0.642277559655684    0.682810545026423    0.694550253343576  0.0000
  Ge     Ge        0.822012609707336    0.765556118504047    0.700348235086696  0.0000
  Ge     Ge        0.669817217059121    0.276894539319331    0.694445190844871  0.0000
  Ge     Ge        0.670207220824578    0.273233518544188    0.011728169058316  0.0000
  Ge     Ge        0.821509418460205    0.754023401526032    0.015766264884919  0.0000
  Ge     Ge        0.338741871280092    0.360021576223972    0.941099808727519  0.0000
  Ge     Ge        0.141293213296525    0.684944081502980    0.944778460494483  0.0000
  Ge     Ge        0.319556161724668    0.767377465354224    0.943525663393968  0.0000
  Ge     Ge        0.159898410438696    0.278266900496889    0.949855869827539  0.0000
  Ge     Ge        0.640470091886546    0.676330055220804    0.012664909894254  0.0000
  Si     Si        0.041043244964837    0.991183350959816    0.883199283038814  0.0000
  Si     Si        0.143241157366676    0.686889434928284    0.256792354812425  0.0000
  Si     Si        0.344549744634844    0.362611074071943    0.253161675093122  0.0000
  Si     Si        0.846599709005690    0.355275085348262    0.007083131797645  0.0000
  O1     O1        0.124486118856134    0.148055172975955    0.365142579924649  0.0000
  O1     O1        0.365470636899409    0.901971965408706    0.357118981995420  0.0000
  O1     O1        0.915032724191366    0.250242037514894    0.609712146265562  0.0000
  O1     O1        0.577916115719401    0.795140996612171    0.602135931587286  0.0000
  O1     O1        0.871881071599253    0.904045762374404    0.602518390037977  0.0000
  O1     O1        0.618559285851126    0.142032874481414    0.595983763169380  0.0000
  O3     O3        0.080538769462725    0.796940725500604    0.329112484360530  0.0000
  O3     O3        0.407764478573166    0.254486335102302    0.328865467522434  0.0000
  O1     O1        0.023001749739084    0.996326697320732    0.532550134414211  0.0000
  O1     O1        0.465445731428075    0.048015910023644    0.532208158169688  0.0000
  O1     O1        0.972656613835743    0.056424328985378    0.285370853563225  0.0000
  O1     O1        0.518669127496003    0.999529123966293    0.289961093359316  0.0000
  O3     O3        0.971003727815355    0.023510843033403    0.789768806787801  0.0000
  O1     O1        0.520426593686969    0.017872590160089    0.783194839938169  0.0000
  O1     O1        0.628847984300306    0.119774878153656    0.107804408701111  0.0000
  O1     O1        0.868332352089302    0.892110045185182    0.118723841666791  0.0000
  O1     O1        0.404928726990563    0.253177679866857    0.854786633271782  0.0000
  O3     O3        0.074258138701804    0.801721512485947    0.861488702068544  0.0000
  O1     O1        0.373560165366069    0.903188204220173    0.851791783687621  0.0000
  O3     O3        0.107191941759992    0.133470613302477    0.859723231474770  0.0000
  O1     O1        0.573292518240945    0.783497798746054    0.098028824690377  0.0000
  O3     O3        0.907261770407172    0.250247012249763    0.090450950605132  0.0000
  O1     O1        0.474184827715495    0.054719109809968    0.038551126487849  0.0000
  O3     O3        0.015170755893519    0.997150769905568    0.033614175689909  0.0000
  O3     O3        0.151881413636111    0.500016781896318    0.321993914485728  0.0000
  O3     O3        0.337464518521504    0.550868591091710    0.314413714851983  0.0000
  O1     O1        0.835789909716862    0.561367414002887    0.640247751850598  0.0000
  O1     O1        0.656919672153601    0.482911421972529    0.635550163824967  0.0000
  O3     O3        0.264327383450188    0.261124816366494    0.262326050221118  0.0000
  O3     O3        0.223171963109044    0.790226873690613    0.261908503314998  0.0000
  O1     O1        0.765298303310751    0.239492904447046    0.690146753909666  0.0000
  O1     O1        0.726237341542357    0.800642348141120    0.698085173630633  0.0000
  O1     O1        0.132297355259058    0.263678108840093    0.110364187399712  0.0000
  O1     O1        0.351528676649846    0.787432692195416    0.102715874676285  0.0000
  O3     O3        0.875207910320849    0.378493268220931    0.859526700690499  0.0000
  O1     O1        0.611385411799092    0.661586334486731    0.852705886136881  0.0000
  O1     O1        0.853337678404638    0.782850967381021    0.859698216095658  0.0000
  O1     O1        0.638280385240795    0.259409820639642    0.853266408078549  0.0000
  O3     O3        0.119377292493222    0.652497974125489    0.107868798509024  0.0000
  O3     O3        0.366729329528249    0.387599222121048    0.102890698585428  0.0000
  O1     O1        0.649937997199190    0.472122143452340    0.072619272267005  0.0000
  O3     O3        0.834544869280254    0.542551562938248    0.066617694755003  0.0000
  O1     O1        0.327584285681802    0.562430878062390    0.882742682838316  0.0000
  O1     O1        0.147485198423956    0.482062858695266    0.885603073758201  0.0000
  O3     O3        0.767659825693139    0.247622105979713    0.007570890814160  0.0000
  O1     O1        0.725665374677314    0.787200428888656    0.019958671352011  0.0000
  O1     O1        0.255455110796372    0.241500491483027    0.939987937078340  0.0000
  O1     O1        0.223975995033118    0.804099575998430    0.938313696136038  0.0000
