data_c00302.vasp
_audit_creation_method             Generated by GULP
_audit_author_name                 Salvador R. G. Balestra
_symmetry_space_group_name_H-M     'P 1             '
_symmetry_Int_Tables_number        1

loop_
_symmetry_equiv_pos_site_id
_symmetry_equiv_pos_as_xyz
_cell_length_a                       17.5471
_cell_length_b                        7.8475
_cell_length_c                       10.3294
_cell_angle_alpha                   88.4625
_cell_angle_beta                    90.2938
_cell_angle_gamma                   91.3904

loop_
_atom_site_label
_atom_site_type_symbol
_atom_site_fract_x
_atom_site_fract_y
_atom_site_fract_z
_atom_site_charge
  Ge     Ge        0.052090000000021    0.000000000000000    0.372269999999958  0.0000
  Ge     Ge        0.444680401736482    0.056736853187299    0.357351391353751  0.0000
  Ge     Ge        0.949283486340885    0.063647002838018    0.624124047455612  0.0000
  Ge     Ge        0.547217282549914    0.015810102061523    0.613477989228634  0.0000
  Ge     Ge        0.555520337708057    0.002812769005220    0.119037996808318  0.0000
  Ge     Ge        0.938890089209380    0.048255080547316    0.126640543680512  0.0000
  Ge     Ge        0.446676345811274    0.071100916011080    0.871195716360633  0.0000
  Ge     Ge        0.172374920977035    0.288778933054342    0.257771048941502  0.0000
  Ge     Ge        0.326554650414733    0.759948241678897    0.252224731391685  0.0000
  Ge     Ge        0.850946250960699    0.371965821891327    0.697901185979641  0.0000
  Ge     Ge        0.644156570993510    0.700639590760229    0.692780965087032  0.0000
  Ge     Ge        0.825786360424695    0.778400121003036    0.701226174276049  0.0000
  Ge     Ge        0.671170730755402    0.295442019553316    0.693064267140873  0.0000
  Ge     Ge        0.143690959031001    0.686800069616687    0.261593706026283  0.0000
  Ge     Ge        0.825740355410245    0.753108603573049    0.014056402929916  0.0000
  Ge     Ge        0.342865115770182    0.377906006948858    0.931102863608549  0.0000
  Ge     Ge        0.140925293791482    0.700345605288212    0.946865669691228  0.0000
  Ge     Ge        0.322813692302299    0.780006365021132    0.940345161631777  0.0000
  Ge     Ge        0.162651837779141    0.298057536923473    0.942525344913583  0.0000
  Ge     Ge        0.641023002706990    0.681993899415707    0.005962312661351  0.0000
  Si     Si        0.043258388490505    0.009424688687478    0.880917147869743  0.0000
  Si     Si        0.349345879137708    0.366218669531806    0.241370158956769  0.0000
  Si     Si        0.668107788346279    0.290346703359989    0.998900537002163  0.0000
  Si     Si        0.846257398995574    0.360330489997103    0.003729901423743  0.0000
  O1     O1        0.131654945446475    0.127363088421714    0.347932916068065  0.0000
  O1     O1        0.376587732182035    0.898309207857661    0.347295030760064  0.0000
  O1     O1        0.916574808709969    0.267498077651736    0.608996954725056  0.0000
  O1     O1        0.581952425827505    0.814742921928143    0.597535286000849  0.0000
  O1     O1        0.875393467638630    0.919152109417166    0.602678870224368  0.0000
  O1     O1        0.621254950428360    0.162533043028430    0.594882867870502  0.0000
  O1     O1        0.077172891147329    0.793956582298854    0.346769657681459  0.0000
  O3     O3        0.413516870440203    0.257194361977676    0.313053916411935  0.0000
  O1     O1        0.025393217201631    0.023841859856724    0.530951345006917  0.0000
  O1     O1        0.470862242563604    0.060268986983500    0.518559258909848  0.0000
  O1     O1        0.974360099379481    0.058684577203793    0.281255508335558  0.0000
  O1     O1        0.527619930136483    0.015873067997343    0.277317489460155  0.0000
  O3     O3        0.972914141951412    0.039527752759859    0.787846302353530  0.0000
  O1     O1        0.520718547267188    0.033084259122928    0.773834547496616  0.0000
  O3     O3        0.634173630061952    0.135421772697938    0.085091992670999  0.0000
  O1     O1        0.871934338099625    0.887256020292749    0.117656726579813  0.0000
  O1     O1        0.409655821595990    0.271620154367839    0.848439028309711  0.0000
  O3     O3        0.077594295446857    0.823808503997526    0.859464386724521  0.0000
  O1     O1        0.372590115665396    0.925949925725060    0.847982216433254  0.0000
  O3     O3        0.108954083683755    0.154213849311090    0.855722533156959  0.0000
  O1     O1        0.579162835454273    0.794464912405326    0.095615423122077  0.0000
  O3     O3        0.898134076036721    0.242445138236279    0.092900215407034  0.0000
  O1     O1        0.477562035777661    0.059336167254874    0.029820101703019  0.0000
  O3     O3        0.016851811920475    0.015237723335554    0.030306618026350  0.0000
  O1     O1        0.153737007638234    0.482838725435636    0.322673213154072  0.0000
  O3     O3        0.340509230287271    0.549565224159632    0.304565279902653  0.0000
  O1     O1        0.839901343815930    0.576096552065018    0.644210793346911  0.0000
  O1     O1        0.657842690455718    0.502078576260202    0.636744204064640  0.0000
  O3     O3        0.269742112089790    0.259467690449485    0.251131590559951  0.0000
  O1     O1        0.230636042792944    0.793587321259038    0.262714392719555  0.0000
  O1     O1        0.766395332274963    0.256439873396290    0.687965181779066  0.0000
  O1     O1        0.729936087023369    0.813336699369189    0.698652998474526  0.0000
  O1     O1        0.137038515999670    0.284274110348719    0.102626321339593  0.0000
  O1     O1        0.357756528310753    0.791952216780572    0.096569228334907  0.0000
  O3     O3        0.879501024834232    0.376465100144453    0.859501493025480  0.0000
  O1     O1        0.609898376501945    0.686357812191611    0.848677896432651  0.0000
  O1     O1        0.857389243499900    0.790310719917041    0.859179371612929  0.0000
  O3     O3        0.637772542322589    0.279332147707853    0.852044532987329  0.0000
  O1     O1        0.112418493521693    0.671485517260690    0.104573811153918  0.0000
  O3     O3        0.370027851372689    0.400020705938120    0.091944649062115  0.0000
  O3     O3        0.644682671317703    0.469518514083211    0.057771992235629  0.0000
  O3     O3        0.844015305741435    0.544975439382258    0.064649734918052  0.0000
  O1     O1        0.333338250844260    0.581813448248572    0.874189242557452  0.0000
  O1     O1        0.148374269885987    0.503099661765250    0.882736043915918  0.0000
  O2     O2        0.760120681141409    0.281327992397477    0.992069672157515  0.0000
  O1     O1        0.729416723857532    0.778538558618191    0.017870388313951  0.0000
  O1     O1        0.258153912192558    0.262460168707157    0.927039741826935  0.0000
  O1     O1        0.226757869010438    0.811517322332882    0.947490310417758  0.0000
