data_c00355.vasp
_audit_creation_method             Generated by GULP
_audit_author_name                 Salvador R. G. Balestra
_symmetry_space_group_name_H-M     'P 1             '
_symmetry_Int_Tables_number        1

loop_
_symmetry_equiv_pos_site_id
_symmetry_equiv_pos_as_xyz
_cell_length_a                       17.5898
_cell_length_b                        7.8116
_cell_length_c                       10.2872
_cell_angle_alpha                   90.5425
_cell_angle_beta                    91.0534
_cell_angle_gamma                   91.5553

loop_
_atom_site_label
_atom_site_type_symbol
_atom_site_fract_x
_atom_site_fract_y
_atom_site_fract_z
_atom_site_charge
  Ge     Ge        0.052090000000021    0.000000000000000    0.372269999999958  0.0000
  Ge     Ge        0.452398140240981    0.058370685559812    0.368149417522041  0.0000
  Ge     Ge        0.946444092250246    0.046416066277320    0.623178659787735  0.0000
  Ge     Ge        0.552907659279948    0.998397100938114    0.625590665176204  0.0000
  Ge     Ge        0.550720151540984    0.988758975768244    0.111255405778298  0.0000
  Ge     Ge        0.953671412410380    0.053424566351116    0.106945422535645  0.0000
  Ge     Ge        0.440439618913084    0.046255074356781    0.861864663578508  0.0000
  Ge     Ge        0.174340299114338    0.281199720591021    0.295299021234765  0.0000
  Ge     Ge        0.328022130593494    0.773562403918843    0.286783005472947  0.0000
  Ge     Ge        0.850584637815946    0.359766107086427    0.734651683351150  0.0000
  Ge     Ge        0.643229413312803    0.677858222913206    0.739852452775986  0.0000
  Ge     Ge        0.825171724666844    0.760335894851530    0.732269213466066  0.0000
  Ge     Ge        0.147900756028872    0.686168166962446    0.291383205743969  0.0000
  Ge     Ge        0.352849937382096    0.366978976331483    0.293229597569559  0.0000
  Ge     Ge        0.677485976895843    0.276273894296564    0.046087073360477  0.0000
  Ge     Ge        0.830981353880863    0.755703423081880    0.046607375464285  0.0000
  Ge     Ge        0.142387444437510    0.676293745443648    0.976922972777754  0.0000
  Ge     Ge        0.325578784284826    0.751477290993126    0.974012443496188  0.0000
  Ge     Ge        0.170542259635053    0.274568789627733    0.978181353949213  0.0000
  Ge     Ge        0.649719049310567    0.675984502014203    0.055604887169364  0.0000
  Si     Si        0.054968907188622    0.987161396485322    0.861681123731870  0.0000
  Si     Si        0.673341789510937    0.283255780341296    0.736008209356118  0.0000
  Si     Si        0.348788891636492    0.354162739101757    0.982871337837118  0.0000
  Si     Si        0.852919906727682    0.360547093996978    0.045828183425395  0.0000
  O1     O1        0.125832517255617    0.147287016068056    0.396302542647176  0.0000
  O1     O1        0.377877717296748    0.913449694416438    0.386462227990490  0.0000
  O1     O1        0.918511596707793    0.250515234914156    0.655771289817084  0.0000
  O1     O1        0.577100979029778    0.790535259711077    0.653797500718502  0.0000
  O1     O1        0.870147632585459    0.909945841012807    0.638652966090468  0.0000
  O3     O3        0.629589109731712    0.136431777232418    0.653720945381664  0.0000
  O1     O1        0.085811428941561    0.796918017224750    0.385161712068734  0.0000
  O1     O1        0.420104597388193    0.263140530764978    0.382555408181960  0.0000
  O1     O1        0.975131099047076    0.035928658969037    0.464307684750879  0.0000
  O1     O1        0.529288990826284    0.016676134259591    0.462808843058740  0.0000
  O1     O1        0.027961368127722    0.030656760030925    0.210022298162917  0.0000
  O1     O1        0.477839285130548    0.039044810678776    0.206844839073542  0.0000
  O3     O3        0.026963404311288    0.994333449839827    0.712519816137330  0.0000
  O1     O1        0.472092467833727    0.054355810739590    0.704696163105657  0.0000
  O1     O1        0.628867407998668    0.127292350488741    0.130884305513071  0.0000
  O1     O1        0.885730711610249    0.896991423871338    0.137274507377833  0.0000
  O3     O3        0.409176012415164    0.247363582825386    0.903858657066843  0.0000
  O3     O3        0.076245497584963    0.792545974619124    0.891609854008398  0.0000
  O1     O1        0.370041559490466    0.890787272669247    0.871637175312075  0.0000
  O3     O3        0.128490215077839    0.111371543270123    0.886431326479013  0.0000
  O1     O1        0.585447604517114    0.788879218764418    0.142068968578148  0.0000
  O3     O3        0.915352513296101    0.255620474527722    0.123504243576655  0.0000
  O1     O1        0.519401514762349    0.996394994694490    0.951879308225565  0.0000
  O3     O3        0.984871248679134    0.046060083499484    0.947812833833477  0.0000
  O1     O1        0.163501148229757    0.488396919807663    0.351862373419904  0.0000
  O1     O1        0.341502264127203    0.570200974056829    0.347389473189903  0.0000
  O1     O1        0.843174966305368    0.559453760299814    0.671296189900287  0.0000
  O3     O3        0.654942860593211    0.470912688178892    0.680816642896425  0.0000
  O1     O1        0.269978650076912    0.244875940013536    0.299086958524335  0.0000
  O1     O1        0.232078161129034    0.805767793111198    0.284159880538746  0.0000
  O3     O3        0.763079718569425    0.251817766304880    0.727378596273144  0.0000
  O1     O1        0.729054983273157    0.787192364048379    0.730958125768409  0.0000
  O1     O1        0.141797524414540    0.265590134447210    0.135968873439332  0.0000
  O1     O1        0.360523477282976    0.786274728059677    0.129334314941765  0.0000
  O3     O3        0.876176177143865    0.386487571695291    0.896557849678823  0.0000
  O1     O1        0.615894733285254    0.665271416938269    0.897286116415873  0.0000
  O1     O1        0.859536693999523    0.780952423667760    0.889028786690079  0.0000
  O3     O3        0.646826812330719    0.274452359247009    0.884825011880104  0.0000
  O1     O1        0.113026478705675    0.663557475559764    0.134491398658602  0.0000
  O3     O3        0.377775071911643    0.380306320469400    0.130741104492764  0.0000
  O1     O1        0.660046337917139    0.474499279795883    0.112894418021695  0.0000
  O3     O3        0.842810123856471    0.548465748439585    0.105011554570895  0.0000
  O3     O3        0.339057313214513    0.541417665087812    0.922661478616174  0.0000
  O1     O1        0.148304141622474    0.471462785010450    0.916169804693448  0.0000
  O3     O3        0.774476550738759    0.247714900022194    0.049587747957295  0.0000
  O1     O1        0.735605614195276    0.788988113204085    0.054649170791408  0.0000
  O3     O3        0.268132408192606    0.250492406492318    0.978158514209564  0.0000
  O1     O1        0.229492334720871    0.780197812268699    0.973038524171296  0.0000
