data_c00380.vasp
_audit_creation_method             Generated by GULP
_audit_author_name                 Salvador R. G. Balestra
_symmetry_space_group_name_H-M     'P 1             '
_symmetry_Int_Tables_number        1

loop_
_symmetry_equiv_pos_site_id
_symmetry_equiv_pos_as_xyz
_cell_length_a                       17.6350
_cell_length_b                        7.8436
_cell_length_c                       10.2307
_cell_angle_alpha                   89.5222
_cell_angle_beta                    90.8125
_cell_angle_gamma                   91.7440

loop_
_atom_site_label
_atom_site_type_symbol
_atom_site_fract_x
_atom_site_fract_y
_atom_site_fract_z
_atom_site_charge
  Ge     Ge        0.052090000000021    0.000000000000000    0.372269999999958  0.0000
  Ge     Ge        0.444377517132430    0.063760313332275    0.351233041089161  0.0000
  Ge     Ge        0.945303861662827    0.061945070412900    0.618441049770177  0.0000
  Ge     Ge        0.547059565695424    0.020866725019777    0.611437593308008  0.0000
  Ge     Ge        0.548835879598586    0.003281302169925    0.106281921592820  0.0000
  Ge     Ge        0.938788504678447    0.053751722380141    0.124296469407183  0.0000
  Ge     Ge        0.438584637433723    0.060331652552650    0.861043544959603  0.0000
  Ge     Ge        0.170558832296797    0.288908569292719    0.256113041974810  0.0000
  Ge     Ge        0.324771320087901    0.762574740899023    0.244550816136826  0.0000
  Ge     Ge        0.846209619897471    0.375144340468816    0.681261535854427  0.0000
  Ge     Ge        0.640250502303048    0.699548868091998    0.682666405775126  0.0000
  Ge     Ge        0.823019368299243    0.775578338293684    0.690365476161804  0.0000
  Ge     Ge        0.143549169688845    0.687571398897699    0.257579858556887  0.0000
  Ge     Ge        0.820065973354926    0.765905200648914    0.006608811750571  0.0000
  Ge     Ge        0.337212138080191    0.368255044813808    0.925034362098781  0.0000
  Ge     Ge        0.135795354493297    0.689706263576895    0.938482023432432  0.0000
  Ge     Ge        0.316291840705770    0.770669510714084    0.928306843399584  0.0000
  Ge     Ge        0.157677092679389    0.286915235517503    0.939189540778696  0.0000
  Ge     Ge        0.636828217705046    0.685712314753956    0.994747602212513  0.0000
  Ge     Ge        0.844248109618677    0.365232413287859    0.003336543869260  0.0000
  Si     Si        0.038292716561202    0.995991169550266    0.876031970359627  0.0000
  Si     Si        0.669699881723634    0.307503031719416    0.679082340574902  0.0000
  Si     Si        0.346770859791702    0.367300857196380    0.236736672974938  0.0000
  Si     Si        0.667217980986663    0.293337481593791    0.988761211322513  0.0000
  O1     O1        0.130109479479774    0.132132763800965    0.350195753800957  0.0000
  O1     O1        0.377282752853063    0.902119716080521    0.338400638364893  0.0000
  O1     O1        0.911563293277004    0.263106557426776    0.597446912625455  0.0000
  O1     O1        0.581959296026275    0.821626865022826    0.586491131482994  0.0000
  O1     O1        0.870283404696963    0.920734848107109    0.593842175239832  0.0000
  O3     O3        0.620719693860087    0.171834888924255    0.597172468377336  0.0000
  O1     O1        0.078104365782702    0.795039837936349    0.344477542360240  0.0000
  O3     O3        0.410393483649467    0.262302802816299    0.311937930880459  0.0000
  O1     O1        0.023610061728162    0.021139589238517    0.531643652709136  0.0000
  O1     O1        0.472073625523281    0.067994744573384    0.513580504678585  0.0000
  O1     O1        0.973625122421282    0.053607508361764    0.281521390047658  0.0000
  O1     O1        0.525893983783389    0.027696943342178    0.267382435514218  0.0000
  O3     O3        0.967708653756628    0.034641953391866    0.784379769532301  0.0000
  O1     O1        0.516164721552999    0.027487014544529    0.770528094483272  0.0000
  O3     O3        0.621902653391568    0.140495976848684    0.057607125348976  0.0000
  O1     O1        0.862983180399120    0.914137803599536    0.107026115820122  0.0000
  O1     O1        0.401847532258713    0.259758891768732    0.838881931627801  0.0000
  O3     O3        0.070664832217981    0.808867256408418    0.852049529751416  0.0000
  O1     O1        0.365908321742466    0.912340565198256    0.832820553788398  0.0000
  O3     O3        0.104716674169410    0.138755767637993    0.851714815217647  0.0000
  O1     O1        0.575503146815894    0.795671583379046    0.088029665371963  0.0000
  O1     O1        0.910036072526538    0.256316752928908    0.090888045991974  0.0000
  O1     O1        0.466977643887267    0.044887094631016    0.022624526350169  0.0000
  O3     O3        0.013751570118368    0.999239541946022    0.027402923943006  0.0000
  O1     O1        0.154012277473390    0.485743796232196    0.320347514468898  0.0000
  O3     O3        0.337957758430859    0.553352820006515    0.297983916780319  0.0000
  O1     O1        0.840695524591214    0.578242932060466    0.625133869752796  0.0000
  O3     O3        0.652366893688992    0.496427533060134    0.624158058125766  0.0000
  O3     O3        0.267250108597418    0.260414703332999    0.245737281710727  0.0000
  O1     O1        0.229581902316119    0.797562182373419    0.257896630792085  0.0000
  O3     O3        0.757881898343458    0.270526118036734    0.666671985016353  0.0000
  O1     O1        0.727313055488783    0.803799272998005    0.690556110525925  0.0000
  O1     O1        0.132583939168382    0.275981490268687    0.100790753007876  0.0000
  O1     O1        0.352079296202672    0.786867178836746    0.085628364970364  0.0000
  O1     O1        0.871754089997520    0.378485808477745    0.843684328156649  0.0000
  O1     O1        0.603043009127946    0.690924642523385    0.836792944858573  0.0000
  O1     O1        0.854189764104990    0.785114294709600    0.850630937019288  0.0000
  O2     O2        0.647936215222964    0.304966790376394    0.833155378526481  0.0000
  O1     O1        0.111541466005003    0.664756768293095    0.099338256811950  0.0000
  O3     O3        0.368114551034832    0.393307343996498    0.085898879857366  0.0000
  O3     O3        0.645344732257662    0.475432847059217    0.047327075106092  0.0000
  O1     O1        0.838749696558120    0.565122832111574    0.065915039120747  0.0000
  O1     O1        0.326079662536498    0.568917161514651    0.865154526516551  0.0000
  O1     O1        0.142128160860346    0.489024503797113    0.876686103650421  0.0000
  O3     O3        0.755817520648791    0.261381782132117    0.009028388734504  0.0000
  O1     O1        0.723958789222870    0.788045739063213    0.002714662216384  0.0000
  O1     O1        0.252694751472963    0.252323832966734    0.925131936611861  0.0000
  O1     O1        0.220896137148780    0.803124129105370    0.933261559108423  0.0000
