data_c00343.vasp
_audit_creation_method             Generated by GULP
_audit_author_name                 Salvador R. G. Balestra
_symmetry_space_group_name_H-M     'P 1             '
_symmetry_Int_Tables_number        1

loop_
_symmetry_equiv_pos_site_id
_symmetry_equiv_pos_as_xyz
_cell_length_a                       17.6885
_cell_length_b                        7.8451
_cell_length_c                       10.1973
_cell_angle_alpha                   90.3151
_cell_angle_beta                    90.5264
_cell_angle_gamma                   88.3553

loop_
_atom_site_label
_atom_site_type_symbol
_atom_site_fract_x
_atom_site_fract_y
_atom_site_fract_z
_atom_site_charge
  Ge     Ge        0.052090000000021    0.000000000000000    0.372269999999958  0.0000
  Ge     Ge        0.442534643668182    0.968046531168058    0.365052511305845  0.0000
  Ge     Ge        0.947001009803719    0.954793183596748    0.627815657622495  0.0000
  Ge     Ge        0.548475751479322    0.019169759534859    0.618749360898531  0.0000
  Ge     Ge        0.547445825477135    0.027345039057935    0.114782536746433  0.0000
  Ge     Ge        0.945478863558896    0.963651027288831    0.114315787474703  0.0000
  Ge     Ge        0.440995028111112    0.962020364246520    0.863889402814242  0.0000
  Ge     Ge        0.146068912956851    0.319936416249769    0.301930999879771  0.0000
  Ge     Ge        0.346805487405890    0.648887738448954    0.302211339497912  0.0000
  Ge     Ge        0.824134079562008    0.244692909789176    0.737172611712049  0.0000
  Ge     Ge        0.671244419914102    0.731219097004242    0.730591841780911  0.0000
  Ge     Ge        0.850256933163124    0.647666778518588    0.737922122915251  0.0000
  Ge     Ge        0.644615335669501    0.329097784548264    0.737466511176823  0.0000
  Ge     Ge        0.645867642017872    0.340784469193006    0.060128892257448  0.0000
  Ge     Ge        0.320550182674580    0.251364998770151    0.983943473214815  0.0000
  Ge     Ge        0.165551113936525    0.725531422868809    0.990239045904825  0.0000
  Ge     Ge        0.346932537656832    0.655206043545671    0.983744036883177  0.0000
  Ge     Ge        0.138725210304644    0.322597623477926    0.986806772890776  0.0000
  Ge     Ge        0.670942599552073    0.738477779866876    0.048999471796839  0.0000
  Ge     Ge        0.825541662220366    0.261205587858314    0.055948989178920  0.0000
  Si     Si        0.049198604788812    0.015925801371081    0.871889193967817  0.0000
  Si     Si        0.168844991726391    0.711145137516520    0.303831564167236  0.0000
  Si     Si        0.324928355680430    0.256099470668004    0.294472880846263  0.0000
  Si     Si        0.846978475017363    0.654649609451749    0.050124271327830  0.0000
  O1     O1        0.090597613806074    0.196874276842472    0.397024674642333  0.0000
  O1     O1        0.406316054530690    0.770656501879463    0.394210595665285  0.0000
  O1     O1        0.872325601850542    0.095739926300057    0.645229681192084  0.0000
  O1     O1        0.623265414499923    0.877745038091502    0.636015025068743  0.0000
  O1     O1        0.919546478578424    0.751219867824956    0.657929155748199  0.0000
  O1     O1        0.575611305194159    0.221921749017777    0.655656906235245  0.0000
  O3     O3        0.124114930695441    0.847135154901860    0.392780089030301  0.0000
  O3     O3        0.369143838777162    0.118196648916914    0.382712987676840  0.0000
  O1     O1        0.976034562981447    0.966067865589224    0.467443352177109  0.0000
  O1     O1        0.519997733100952    0.013061559405051    0.456222911249877  0.0000
  O1     O1        0.022611968465872    0.985512332536163    0.210981434356248  0.0000
  O1     O1        0.471627283936071    0.973540179638007    0.203786999289586  0.0000
  O3     O3        0.026653929160550    0.002500015737036    0.719623910270750  0.0000
  O1     O1        0.469181384505852    0.965769216141948    0.703216600901041  0.0000
  O1     O1        0.579815702946844    0.229313550954215    0.143029807833262  0.0000
  O3     O3        0.905726639578512    0.764747216127030    0.132204727313301  0.0000
  O1     O1        0.365549305181012    0.099933241124718    0.891268993312771  0.0000
  O3     O3        0.118217904508334    0.886577796292499    0.908120490120852  0.0000
  O1     O1        0.413073020047497    0.758525296421986    0.895852741573708  0.0000
  O3     O3        0.073056243038427    0.209127748718589    0.898747819477967  0.0000
  O1     O1        0.624345410531197    0.889905656597339    0.138818883494986  0.0000
  O1     O1        0.879366361174827    0.122347354526671    0.148293946410212  0.0000
  O1     O1        0.519206829525993    0.018187995575538    0.952365496721570  0.0000
  O3     O3        0.974583414650065    0.971040385351163    0.952119324081392  0.0000
  O3     O3        0.154046932676267    0.524101001301994    0.362222556009740  0.0000
  O3     O3        0.341574307246309    0.442035603891024    0.355850798593315  0.0000
  O1     O1        0.839368096989796    0.446132339922071    0.677236278413956  0.0000
  O1     O1        0.656450695843737    0.527862280607969    0.672674838135461  0.0000
  O3     O3        0.235872163238526    0.225839827174588    0.291468989566595  0.0000
  O3     O3        0.257526931015801    0.745676800560678    0.304717348382949  0.0000
  O1     O1        0.728535324558366    0.212034140261675    0.730958209901373  0.0000
  O1     O1        0.766752499621679    0.764395663940376    0.725586461357221  0.0000
  O1     O1        0.108860857517024    0.326263718114540    0.146404730795284  0.0000
  O1     O1        0.377639809709444    0.649459084173613    0.143895511670591  0.0000
  O1     O1        0.854365082271032    0.231512869670668    0.897117522360882  0.0000
  O1     O1        0.639332133535936    0.750188478650403    0.889018633443714  0.0000
  O3     O3        0.874625363588138    0.623761544231671    0.901892932446938  0.0000
  O1     O1        0.619743484214852    0.359311005165893    0.897849790453277  0.0000
  O3     O3        0.139535589618270    0.718673864376271    0.153396539822013  0.0000
  O3     O3        0.354344092678619    0.245934244594914    0.144830290323368  0.0000
  O1     O1        0.653606733423932    0.543503131427867    0.118435321807400  0.0000
  O3     O3        0.836588187989859    0.469836387115279    0.112273828504929  0.0000
  O1     O1        0.337318624044626    0.451791707030108    0.925258063175042  0.0000
  O1     O1        0.145198073031273    0.526615707066133    0.928518138937611  0.0000
  O1     O1        0.730833806621554    0.226801606118444    0.066584682614655  0.0000
  O3     O3        0.767803359576404    0.762764341210308    0.045370166630580  0.0000
  O1     O1        0.225530876054109    0.219738840001571    0.979527116470379  0.0000
  O1     O1        0.259968686567628    0.760266597731732    0.976623690147454  0.0000
