data_c00329.vasp
_audit_creation_method             Generated by GULP
_audit_author_name                 Salvador R. G. Balestra
_symmetry_space_group_name_H-M     'P 1             '
_symmetry_Int_Tables_number        1

loop_
_symmetry_equiv_pos_site_id
_symmetry_equiv_pos_as_xyz
_cell_length_a                       17.6195
_cell_length_b                        7.8234
_cell_length_c                       10.3326
_cell_angle_alpha                   91.1749
_cell_angle_beta                    90.2401
_cell_angle_gamma                   91.2142

loop_
_atom_site_label
_atom_site_type_symbol
_atom_site_fract_x
_atom_site_fract_y
_atom_site_fract_z
_atom_site_charge
  Ge     Ge        0.052090000000021    0.000000000000000    0.372269999999958  0.0000
  Ge     Ge        0.446115713111204    0.056166882365738    0.338055179184227  0.0000
  Ge     Ge        0.951135542691079    0.040629434779587    0.629604687856223  0.0000
  Ge     Ge        0.549163961238710    0.996931963474909    0.591766612262864  0.0000
  Ge     Ge        0.548796386719735    0.995814415478570    0.083232101741011  0.0000
  Ge     Ge        0.942771647302470    0.047803178513929    0.126586861942620  0.0000
  Ge     Ge        0.439600681021471    0.037792842516525    0.835204427250638  0.0000
  Ge     Ge        0.167794416214799    0.296654942149828    0.268622155084634  0.0000
  Ge     Ge        0.323954124954770    0.770855936672534    0.256614115157485  0.0000
  Ge     Ge        0.854489954711002    0.359299498925970    0.700035683677603  0.0000
  Ge     Ge        0.644004134981253    0.685333750745239    0.705808427206526  0.0000
  Ge     Ge        0.824194177802166    0.762597078365938    0.703915279278942  0.0000
  Ge     Ge        0.672771504171510    0.282612792509378    0.702146974845821  0.0000
  Ge     Ge        0.347795541251582    0.367412839477032    0.268819295812721  0.0000
  Ge     Ge        0.672767060563209    0.282455146815065    0.015369553263981  0.0000
  Ge     Ge        0.143922605817926    0.671583244259015    0.943839908036141  0.0000
  Ge     Ge        0.324420277888537    0.742366794426106    0.943550184487034  0.0000
  Ge     Ge        0.164227460800312    0.270336891488518    0.956344267698701  0.0000
  Ge     Ge        0.649668105428239    0.682472783120338    0.021917692699919  0.0000
  Ge     Ge        0.853841115791051    0.364342119865979    0.011627645880453  0.0000
  Si     Si        0.047459055801664    0.980501683616318    0.884490177707770  0.0000
  Si     Si        0.147577521656345    0.692262621934110    0.252451879263696  0.0000
  Si     Si        0.825909128093600    0.761491308834516    0.012022410384270  0.0000
  Si     Si        0.342680175341002    0.342690022981970    0.960096386907139  0.0000
  O1     O1        0.117840983854820    0.163537983415996    0.367165526176398  0.0000
  O1     O1        0.368932842908039    0.918767555844080    0.353923801682524  0.0000
  O1     O1        0.918638837611909    0.243808788999357    0.610926042934664  0.0000
  O1     O1        0.574599736810014    0.792232908397617    0.625963147410770  0.0000
  O1     O1        0.874174915891355    0.902888741933969    0.612409271727587  0.0000
  O1     O1        0.626186916120735    0.131714308634919    0.608388226423928  0.0000
  O3     O3        0.086376279504870    0.802026068078346    0.328719789380291  0.0000
  O1     O1        0.414334543508154    0.261404661781947    0.355727351745958  0.0000
  O1     O1        0.024253696394840    0.989978944026150    0.531667155640184  0.0000
  O1     O1        0.521158380162444    0.007105771221948    0.431465889377820  0.0000
  O1     O1        0.971801594071170    0.038454863318803    0.284524771501209  0.0000
  O1     O1        0.472936368333644    0.033789382050008    0.177745319500601  0.0000
  O3     O3        0.979176546672024    0.020081664291981    0.790733184487000  0.0000
  O1     O1        0.470737311994154    0.056528848455743    0.678576314726484  0.0000
  O1     O1        0.622199033748225    0.142313546697103    0.106540425781914  0.0000
  O3     O3        0.868388077705319    0.904152874406659    0.099872915922923  0.0000
  O3     O3        0.402088411861448    0.232706206802028    0.879954195914425  0.0000
  O3     O3        0.077198506930702    0.788484475061550    0.863042698315252  0.0000
  O1     O1        0.374144998322664    0.872346184312459    0.842458487521689  0.0000
  O3     O3        0.118151623159144    0.113262820951238    0.865385933412001  0.0000
  O1     O1        0.586962198470110    0.798577089252956    0.110297430270123  0.0000
  O1     O1        0.916042739179797    0.254858309968685    0.104335723827570  0.0000
  O1     O1        0.519000851491019    0.997596399080511    0.923983657889427  0.0000
  O3     O3        0.020411764211318    0.998625079364293    0.032943890876579  0.0000
  O3     O3        0.159036126143691    0.510021166524664    0.317750473610431  0.0000
  O1     O1        0.341999791641754    0.574032403268263    0.320724000872692  0.0000
  O1     O1        0.841108559772311    0.559098205239858    0.643496846761996  0.0000
  O1     O1        0.656310108163500    0.483227435979535    0.643019708472036  0.0000
  O1     O1        0.262709001059089    0.256951124597518    0.278756546837501  0.0000
  O3     O3        0.226801640348643    0.799944447514571    0.251573015715673  0.0000
  O1     O1        0.768533113989535    0.249319749332452    0.701981888112680  0.0000
  O1     O1        0.728929240086007    0.798958230909333    0.696255720843802  0.0000
  O1     O1        0.134205259409252    0.261953747359694    0.114102610148036  0.0000
  O1     O1        0.355821458784559    0.780962577299628    0.099208216673534  0.0000
  O1     O1        0.887526094402688    0.370495473247362    0.857059987555961  0.0000
  O1     O1        0.618438441018182    0.663272390567885    0.864188420292408  0.0000
  O3     O3        0.854371611648775    0.770358349282683    0.864544988301628  0.0000
  O1     O1        0.639827834278082    0.269279281103497    0.858159901396884  0.0000
  O3     O3        0.121026589771325    0.652873393123167    0.106095667139417  0.0000
  O3     O3        0.372333256236107    0.371577298908107    0.106026480213883  0.0000
  O1     O1        0.658639503934195    0.483929178153086    0.081883830876547  0.0000
  O3     O3        0.841215851127971    0.572758663377150    0.066465443710556  0.0000
  O3     O3        0.333721092295542    0.528082513065222    0.898638160828990  0.0000
  O1     O1        0.145991813542603    0.464755958719036    0.887967441700058  0.0000
  O1     O1        0.768601828999553    0.252854172128090    0.014032622836621  0.0000
  O3     O3        0.736291521001404    0.793158703273513    0.015314093917272  0.0000
  O3     O3        0.261549002450445    0.242509781833796    0.959704727329814  0.0000
  O1     O1        0.229152391616814    0.778801947303701    0.931691976322050  0.0000
