data_c00362.vasp
_audit_creation_method             Generated by GULP
_audit_author_name                 Salvador R. G. Balestra
_symmetry_space_group_name_H-M     'P 1             '
_symmetry_Int_Tables_number        1

loop_
_symmetry_equiv_pos_site_id
_symmetry_equiv_pos_as_xyz
_cell_length_a                       17.6372
_cell_length_b                        7.8058
_cell_length_c                       10.2905
_cell_angle_alpha                   91.3001
_cell_angle_beta                    90.8203
_cell_angle_gamma                   89.1362

loop_
_atom_site_label
_atom_site_type_symbol
_atom_site_fract_x
_atom_site_fract_y
_atom_site_fract_z
_atom_site_charge
  Ge     Ge        0.052090000000021    0.000000000000000    0.372269999999958  0.0000
  Ge     Ge        0.450214800685172    0.956434683953757    0.406353382973580  0.0000
  Ge     Ge        0.949419443584269    0.943689422350002    0.626774661954892  0.0000
  Ge     Ge        0.554188601701271    0.998735831991038    0.665300552966990  0.0000
  Ge     Ge        0.555505925755595    0.002005673157369    0.160912239478671  0.0000
  Ge     Ge        0.950262129358749    0.942862184183347    0.109613959179280  0.0000
  Ge     Ge        0.448263631245761    0.928774936341046    0.912593718932088  0.0000
  Ge     Ge        0.148049924554736    0.314613192404361    0.298281350836402  0.0000
  Ge     Ge        0.354437419700194    0.640298127408573    0.283789806216565  0.0000
  Ge     Ge        0.827997690300607    0.229701648307046    0.733209371558667  0.0000
  Ge     Ge        0.675031113555427    0.709187977588332    0.733150946584461  0.0000
  Ge     Ge        0.854647965976123    0.631327645355650    0.736294835706232  0.0000
  Ge     Ge        0.175198030562631    0.720533052763593    0.291651496935057  0.0000
  Ge     Ge        0.327291620488132    0.236570748787724    0.296200532660105  0.0000
  Ge     Ge        0.648754233527056    0.312705189621447    0.043174688113686  0.0000
  Ge     Ge        0.325215748585526    0.218951700477556    0.982691399693752  0.0000
  Ge     Ge        0.166518657916448    0.691936666303047    0.975122494997416  0.0000
  Ge     Ge        0.347151606677798    0.616973370056658    0.963436346676076  0.0000
  Ge     Ge        0.674720186172038    0.715779614683714    0.047634238376790  0.0000
  Ge     Ge        0.828211980440516    0.235317800810633    0.048316234170998  0.0000
  Si     Si        0.055066921667044    0.985607528364307    0.868263765874157  0.0000
  Si     Si        0.652384789839874    0.312877893781617    0.731909623677875  0.0000
  Si     Si        0.850500055893897    0.630864726173735    0.046192222951669  0.0000
  Si     Si        0.146809763346575    0.293184183489051    0.991569266354062  0.0000
  O1     O1        0.082715391029424    0.207632368478036    0.386266841133480  0.0000
  O1     O1        0.424806870472103    0.751325413300818    0.362606483899696  0.0000
  O1     O1        0.871705579971650    0.075688217605396    0.640032343748696  0.0000
  O1     O1        0.623267309005289    0.844917446129480    0.637542809307700  0.0000
  O1     O1        0.924549698475443    0.738260325760312    0.660653871568377  0.0000
  O3     O3        0.590965237448095    0.202713027367710    0.651321376085825  0.0000
  O1     O1        0.128402424302916    0.862493618594887    0.391235846647700  0.0000
  O1     O1        0.374733743276650    0.094416159481668    0.392250033901310  0.0000
  O1     O1        0.978000427473457    0.955348071546255    0.468306800568551  0.0000
  O1     O1        0.477372808312407    0.964818182871475    0.567844094288917  0.0000
  O1     O1        0.024835709931708    0.965587744482679    0.211665130765606  0.0000
  O1     O1        0.528068547659559    0.014952544237522    0.320133855328614  0.0000
  O3     O3        0.027568149305868    0.005162069288979    0.719980069033871  0.0000
  O1     O1        0.523774634791177    0.982707899703735    0.823458220251132  0.0000
  O1     O1        0.577607031990946    0.205600449223076    0.113678567756457  0.0000
  O3     O3        0.910777679240670    0.741541527141873    0.127204832133761  0.0000
  O1     O1        0.371082892828236    0.065078205341256    0.893757337791106  0.0000
  O3     O3        0.115679039207194    0.830584114631146    0.877634378993568  0.0000
  O1     O1        0.412897599306572    0.727669590289157    0.879800330521124  0.0000
  O2     O2        0.089025377054352    0.168479239927850    0.914257633020302  0.0000
  O1     O1        0.633717996536371    0.869546228439265    0.144664613375128  0.0000
  O1     O1        0.882471551820315    0.099398431407961    0.139366458592011  0.0000
  O1     O1        0.479184280864984    0.928409033118536    0.072742601280033  0.0000
  O3     O3        0.980729982269276    0.946469442285993    0.949897306425048  0.0000
  O1     O1        0.161088386887078    0.518751843345401    0.352997244655233  0.0000
  O1     O1        0.342253737417300    0.443688016926534    0.351159047936918  0.0000
  O1     O1        0.846912058969665    0.427584535907739    0.672609461724620  0.0000
  O3     O3        0.663325793935197    0.499178160663885    0.674253917058275  0.0000
  O1     O1        0.231843741132304    0.199306034852407    0.301246068759901  0.0000
  O1     O1        0.270652705839644    0.757693785631116    0.290982354714116  0.0000
  O3     O3        0.730610142746013    0.203156905808751    0.731830451461030  0.0000
  O1     O1        0.770480799187494    0.745175696036781    0.724388475280190  0.0000
  O3     O3        0.117460929060575    0.324258698083320    0.136743297124243  0.0000
  O1     O1        0.375061194452111    0.601936605971855    0.123987285539435  0.0000
  O1     O1        0.857872857006827    0.206907807754541    0.891148546063429  0.0000
  O1     O1        0.643193773616986    0.737737775001597    0.889605669819458  0.0000
  O3     O3        0.876737410529482    0.599564724255704    0.898243984410055  0.0000
  O3     O3        0.627386593214614    0.342145410111762    0.880504784102999  0.0000
  O1     O1        0.141251642548477    0.725377030692250    0.133249413963769  0.0000
  O1     O1        0.359909626614172    0.210485509766378    0.139740103216816  0.0000
  O1     O1        0.654936736924645    0.517198555362094    0.106397810898217  0.0000
  O3     O3        0.838959967990595    0.445778305041331    0.106009956293796  0.0000
  O1     O1        0.340359031977480    0.410388691840364    0.908068606477835  0.0000
  O3     O3        0.152128582697739    0.477938487713402    0.926947824645912  0.0000
  O1     O1        0.732736998154003    0.199208871137248    0.059256255815839  0.0000
  O3     O3        0.771968242576888    0.739687259722018    0.043070982606152  0.0000
  O3     O3        0.228053830627041    0.196638956479194    0.994419293544877  0.0000
  O1     O1        0.261343269999921    0.725719379271301    0.957724813896466  0.0000
