data_c00320.vasp
_audit_creation_method             Generated by GULP
_audit_author_name                 Salvador R. G. Balestra
_symmetry_space_group_name_H-M     'P 1             '
_symmetry_Int_Tables_number        1

loop_
_symmetry_equiv_pos_site_id
_symmetry_equiv_pos_as_xyz
_cell_length_a                       17.7331
_cell_length_b                        7.7819
_cell_length_c                       10.1889
_cell_angle_alpha                   92.3739
_cell_angle_beta                    89.8133
_cell_angle_gamma                   90.5810

loop_
_atom_site_label
_atom_site_type_symbol
_atom_site_fract_x
_atom_site_fract_y
_atom_site_fract_z
_atom_site_charge
  Ge     Ge        0.052090000000021    0.000000000000000    0.372269999999958  0.0000
  Ge     Ge        0.443490370334227    0.055042570439375    0.377265556583480  0.0000
  Ge     Ge        0.951377096476272    0.022276913308786    0.630984033926438  0.0000
  Ge     Ge        0.545259749413897    0.987311960055818    0.629378890721595  0.0000
  Ge     Ge        0.551892554317954    0.999718544682496    0.130950425944567  0.0000
  Ge     Ge        0.936642387176024    0.058499034749590    0.140838188561873  0.0000
  Ge     Ge        0.439967302657695    0.024936240680270    0.887235774638556  0.0000
  Ge     Ge        0.165394203302633    0.296158797514717    0.276603556233203  0.0000
  Ge     Ge        0.319000029516899    0.769660048590818    0.261330487502854  0.0000
  Ge     Ge        0.851114283322205    0.344757700726840    0.700358729852181  0.0000
  Ge     Ge        0.645768288572751    0.673243393984884    0.693193118679901  0.0000
  Ge     Ge        0.823546036394172    0.751833916427029    0.699384472293161  0.0000
  Ge     Ge        0.672226747470751    0.266123137152748    0.696294058245213  0.0000
  Ge     Ge        0.347138375956400    0.361757650452058    0.265277044562059  0.0000
  Ge     Ge        0.668700014743252    0.287868672811688    0.014855594589535  0.0000
  Ge     Ge        0.818060419417256    0.772286465012253    0.019548824668978  0.0000
  Ge     Ge        0.145910680313011    0.658277618635559    0.935693650253886  0.0000
  Ge     Ge        0.319261482097689    0.731140798566409    0.935638189518909  0.0000
  Ge     Ge        0.157133268502906    0.260890487748574    0.962885964390508  0.0000
  Ge     Ge        0.847383630726321    0.368532019521416    0.021632882305776  0.0000
  Si     Si        0.041482750162321    0.966349379990607    0.895257103231563  0.0000
  Si     Si        0.148506777585153    0.687624755432147    0.257462842590455  0.0000
  Si     Si        0.334578650191613    0.329542689896233    0.955266974258933  0.0000
  Si     Si        0.643965558111962    0.687205437196758    0.006799242884110  0.0000
  O1     O1        0.119726316884659    0.156695021081212    0.376805790049318  0.0000
  O1     O1        0.365285619855625    0.930055610097469    0.345987949567809  0.0000
  O1     O1        0.918811438286327    0.227959260430814    0.616883290299542  0.0000
  O1     O1        0.578098399865735    0.779958206296222    0.610548750877494  0.0000
  O1     O1        0.876257596783405    0.883785053434448    0.605290818337629  0.0000
  O1     O1        0.620084278118511    0.123787360479209    0.601421909117481  0.0000
  O3     O3        0.078127977620484    0.804456089790811    0.297245787328837  0.0000
  O1     O1        0.417041131127750    0.261912563697248    0.347493213014372  0.0000
  O1     O1        0.026281100850981    0.971928494719436    0.533570639792541  0.0000
  O1     O1        0.467958649546160    0.031247856732156    0.538796740590422  0.0000
  O1     O1        0.969473759922294    0.057006541913235    0.298372663775018  0.0000
  O1     O1        0.523569479137437    0.996626936854239    0.292344007508139  0.0000
  O3     O3        0.975892082025435    0.001981513432993    0.795385956755273  0.0000
  O1     O1        0.518327669153507    0.017812846756928    0.791928605660877  0.0000
  O1     O1        0.619595334131834    0.155777392383305    0.115118426871813  0.0000
  O1     O1        0.858079957635687    0.930030480195408    0.118205927318975  0.0000
  O3     O3        0.387530573705515    0.209404207350203    0.865237317854910  0.0000
  O3     O3        0.070581637911762    0.770108950556033    0.879389302513519  0.0000
  O1     O1        0.382170151450383    0.849728003963630    0.849906858099489  0.0000
  O3     O3        0.112179338149645    0.094793328706656    0.876001094658741  0.0000
  O3     O3        0.580940800725100    0.793843371675743    0.085876013870455  0.0000
  O1     O1        0.913904900562665    0.266193027439555    0.109773076413272  0.0000
  O1     O1        0.470533535796956    0.037236114100959    0.047271379117447  0.0000
  O3     O3        0.010599919671054    0.986424833411099    0.043247695489180  0.0000
  O3     O3        0.147769288667599    0.508116062934761    0.330087483628877  0.0000
  O1     O1        0.343354624741759    0.573223794513299    0.318042775809488  0.0000
  O1     O1        0.837354690470017    0.542859884892399    0.640177239448204  0.0000
  O1     O1        0.658558245774995    0.467618649431307    0.635060164058916  0.0000
  O1     O1        0.260562252985058    0.263928140697767    0.284316525245998  0.0000
  O3     O3        0.223310893402893    0.799433456673467    0.290557788448468  0.0000
  O1     O1        0.767186617059229    0.228370052587578    0.694914721396863  0.0000
  O1     O1        0.728613303475955    0.790380645856485    0.688266514137205  0.0000
  O1     O1        0.127706348026546    0.251200172548050    0.123534984709265  0.0000
  O1     O1        0.339218046329646    0.782568882966389    0.097375001080135  0.0000
  O1     O1        0.877060863595340    0.375823812189744    0.861746997033655  0.0000
  O3     O3        0.618868954769828    0.656947556669633    0.856466037983602  0.0000
  O1     O1        0.850752385642232    0.778294373532800    0.861393878453866  0.0000
  O1     O1        0.639983301491522    0.254659177050198    0.855939310425045  0.0000
  O3     O3        0.153591005732272    0.628227978641314    0.103907691198150  0.0000
  O3     O3        0.369706862530835    0.360691930882386    0.099705517725398  0.0000
  O3     O3        0.655795406501116    0.502264281807295    0.066836042029018  0.0000
  O1     O1        0.836819612771217    0.575325552142488    0.082150954504960  0.0000
  O3     O3        0.325030993119342    0.513025319008895    0.892927653317464  0.0000
  O1     O1        0.137507123057081    0.446707207945314    0.883837446911237  0.0000
  O1     O1        0.763710870223643    0.253944381030041    0.025308903811476  0.0000
  O3     O3        0.721156351247471    0.798847753176319    0.013659991722701  0.0000
  O3     O3        0.253735961788585    0.234108321543685    0.969041133998324  0.0000
  O1     O1        0.226678141195547    0.767965088256057    0.897206722835401  0.0000
