data_c00336.vasp
_audit_creation_method             Generated by GULP
_audit_author_name                 Salvador R. G. Balestra
_symmetry_space_group_name_H-M     'P 1             '
_symmetry_Int_Tables_number        1

loop_
_symmetry_equiv_pos_site_id
_symmetry_equiv_pos_as_xyz
_cell_length_a                       17.5879
_cell_length_b                        7.8455
_cell_length_c                       10.2935
_cell_angle_alpha                   90.8936
_cell_angle_beta                    90.4845
_cell_angle_gamma                   91.7683

loop_
_atom_site_label
_atom_site_type_symbol
_atom_site_fract_x
_atom_site_fract_y
_atom_site_fract_z
_atom_site_charge
  Ge     Ge        0.052090000000021    0.000000000000000    0.372269999999958  0.0000
  Ge     Ge        0.448335011438192    0.062844612940127    0.326836212649906  0.0000
  Ge     Ge        0.949050851145431    0.039096513354975    0.626584533195817  0.0000
  Ge     Ge        0.548996380270251    0.988734461934596    0.579973574649893  0.0000
  Ge     Ge        0.549256092449215    0.001751201531163    0.069225936625946  0.0000
  Ge     Ge        0.938128173746985    0.045731643144032    0.129090419502376  0.0000
  Ge     Ge        0.438650068946283    0.044419994870823    0.820979128472672  0.0000
  Ge     Ge        0.167676545915015    0.299621994062726    0.265020403190442  0.0000
  Ge     Ge        0.324009872977737    0.773667108415081    0.253051001143315  0.0000
  Ge     Ge        0.853487590134249    0.354313866059670    0.701005972279592  0.0000
  Ge     Ge        0.642075729263346    0.680608519910886    0.695244802670578  0.0000
  Ge     Ge        0.823903892511944    0.756822313626237    0.700357916465514  0.0000
  Ge     Ge        0.671836579034596    0.279176638460608    0.701148691505322  0.0000
  Ge     Ge        0.349273573419091    0.373552521849462    0.262786329183748  0.0000
  Ge     Ge        0.343545413427867    0.353855771129563    0.945265024957818  0.0000
  Ge     Ge        0.138952523843989    0.677103666958759    0.946463617083944  0.0000
  Ge     Ge        0.319375939762608    0.757994119851523    0.937690691064382  0.0000
  Ge     Ge        0.161215459976381    0.274435062208713    0.950969953176371  0.0000
  Ge     Ge        0.645090975907322    0.682710303532388    0.009418165664349  0.0000
  Ge     Ge        0.848376484318640    0.361826687406511    0.013953812873931  0.0000
  Si     Si        0.042077387896656    0.984342373802836    0.885067534795493  0.0000
  Si     Si        0.146724796349981    0.693622052379931    0.254905307309212  0.0000
  Si     Si        0.668337986840553    0.292855373261962    0.008808351329767  0.0000
  Si     Si        0.824508081663774    0.755379584901873    0.008635131586355  0.0000
  O1     O1        0.118442634115993    0.163140774522745    0.363385583792906  0.0000
  O1     O1        0.371615306583092    0.922979906187217    0.346109768311505  0.0000
  O1     O1        0.916950101885926    0.241836352561690    0.610118232367129  0.0000
  O1     O1        0.575235506263951    0.783263470491418    0.605353361748931  0.0000
  O1     O1        0.873240830848661    0.897108083733751    0.606256214825218  0.0000
  O1     O1        0.625636958723961    0.121408941268735    0.614518452213417  0.0000
  O3     O3        0.087093944343049    0.802470505785533    0.334319628398857  0.0000
  O1     O1        0.415225517895770    0.264495305180959    0.349690056319793  0.0000
  O1     O1        0.024403708782527    0.994798050893735    0.532501779223065  0.0000
  O1     O1        0.524910182782536    0.014439848963904    0.418531117996644  0.0000
  O1     O1        0.970117440283710    0.033472008049718    0.286031685427630  0.0000
  O1     O1        0.474636707939666    0.044990440097620    0.165390340402651  0.0000
  O3     O3        0.973162761205467    0.016795499628043    0.790246182424275  0.0000
  O1     O1        0.468392733829864    0.041386475947799    0.662354452388791  0.0000
  O3     O3        0.622813808844862    0.153410702948716    0.090707662797800  0.0000
  O3     O3        0.864230040472457    0.900974471112802    0.098163636238480  0.0000
  O1     O1        0.409077383514176    0.245836715936451    0.857961205465902  0.0000
  O3     O3        0.071531595509513    0.792782584875912    0.866631992689800  0.0000
  O1     O1        0.364404959945449    0.900170951941132    0.838908854092548  0.0000
  O3     O3        0.111336158593059    0.120597551529009    0.861326973193284  0.0000
  O1     O1        0.587184156728002    0.806070535898455    0.100828890355197  0.0000
  O1     O1        0.906159953131750    0.249038419579859    0.111842856655555  0.0000
  O1     O1        0.516867551825682    0.993774337213101    0.911105671656192  0.0000
  O3     O3        0.016149465943128    0.007245515809804    0.034143093443169  0.0000
  O3     O3        0.158679115055484    0.510429844308925    0.318241507454161  0.0000
  O1     O1        0.342291940841245    0.577914270149142    0.318310523958579  0.0000
  O1     O1        0.841382379659411    0.553362444181411    0.643348343343579  0.0000
  O1     O1        0.653802263412418    0.476511541743081    0.638426021985336  0.0000
  O1     O1        0.263017125652997    0.262952986091885    0.268626860451749  0.0000
  O3     O3        0.226555006224232    0.800904923278974    0.251409168108083  0.0000
  O1     O1        0.766927796115312    0.244037119467475    0.698990694620431  0.0000
  O1     O1        0.728557706202140    0.790178979281673    0.690039452455076  0.0000
  O1     O1        0.132863975253279    0.268485957408530    0.110373630338958  0.0000
  O1     O1        0.353946291352734    0.782716335456266    0.094209290171854  0.0000
  O1     O1        0.884372873487009    0.360077139373564    0.860417593023328  0.0000
  O1     O1        0.611190298033402    0.675304847729754    0.852796080635557  0.0000
  O3     O3        0.854531453372302    0.764716876737006    0.861704446611348  0.0000
  O3     O3        0.638929096655034    0.282755511307559    0.859811880753687  0.0000
  O3     O3        0.116438112287084    0.657357063287939    0.109363728142467  0.0000
  O1     O1        0.375346852475674    0.380840056058650    0.102158009701248  0.0000
  O3     O3        0.651046337689247    0.479396058287355    0.068736245396325  0.0000
  O3     O3        0.842235251902968    0.571043474567356    0.067440616602894  0.0000
  O1     O1        0.331932032356932    0.552485464054365    0.882598555183231  0.0000
  O1     O1        0.144124455932809    0.473342532433969    0.887555548772440  0.0000
  O3     O3        0.758161983622923    0.265832318282473    0.010990592460660  0.0000
  O3     O3        0.734553893971156    0.780287066703167    0.004615083159795  0.0000
  O1     O1        0.257166374911299    0.243037799168032    0.944769263698883  0.0000
  O1     O1        0.223463625191009    0.789777055418983    0.936105663758972  0.0000
