data_c00387.vasp
_audit_creation_method             Generated by GULP
_audit_author_name                 Salvador R. G. Balestra
_symmetry_space_group_name_H-M     'P 1             '
_symmetry_Int_Tables_number        1

loop_
_symmetry_equiv_pos_site_id
_symmetry_equiv_pos_as_xyz
_cell_length_a                       17.5553
_cell_length_b                        7.7796
_cell_length_c                       10.4158
_cell_angle_alpha                   93.1805
_cell_angle_beta                    90.6777
_cell_angle_gamma                   90.4949

loop_
_atom_site_label
_atom_site_type_symbol
_atom_site_fract_x
_atom_site_fract_y
_atom_site_fract_z
_atom_site_charge
  Ge     Ge        0.052090000000021    0.000000000000000    0.372269999999958  0.0000
  Ge     Ge        0.457441529654647    0.051817916370930    0.370794979525419  0.0000
  Ge     Ge        0.948049582113082    0.943442533401088    0.623624952830746  0.0000
  Ge     Ge        0.553739578873629    0.990549103560581    0.629688231961454  0.0000
  Ge     Ge        0.551458947911910    0.042501504981886    0.099247241405956  0.0000
  Ge     Ge        0.945129695536882    0.017169224183209    0.110255624461393  0.0000
  Ge     Ge        0.436668809958827    0.012115383207396    0.854447151179194  0.0000
  Ge     Ge        0.170693733549270    0.288103465914232    0.296172226415385  0.0000
  Ge     Ge        0.330431743638673    0.766749771727906    0.291726378991444  0.0000
  Ge     Ge        0.824866659873811    0.224768759730366    0.747284232735776  0.0000
  Ge     Ge        0.667229558096320    0.689653872463718    0.702590119061103  0.0000
  Ge     Ge        0.851230059340450    0.635081611850956    0.713016327737499  0.0000
  Ge     Ge        0.352682432625546    0.353182631559392    0.286845535424207  0.0000
  Ge     Ge        0.650515856439816    0.376533604394818    0.053430196118932  0.0000
  Ge     Ge        0.349036409307440    0.339631310007556    0.974441128920863  0.0000
  Ge     Ge        0.136462585973227    0.676791521362998    0.995243326983255  0.0000
  Ge     Ge        0.318421049100929    0.751392459537504    0.979703684503470  0.0000
  Ge     Ge        0.164353521931539    0.271097707140780    0.984487351996655  0.0000
  Ge     Ge        0.669968121989208    0.762092270802088    0.016117934959629  0.0000
  Ge     Ge        0.824395690265958    0.297517774517635    0.053917383906482  0.0000
  Si     Si        0.049989300756576    0.985712568052372    0.875721641368301  0.0000
  Si     Si        0.654934165560878    0.304983514546997    0.743663737076252  0.0000
  Si     Si        0.153723914912454    0.689335567516197    0.301647470340204  0.0000
  Si     Si        0.850237112954218    0.691276568444846    0.013883439808496  0.0000
  O1     O1        0.118962321212420    0.163498193667773    0.394214982512587  0.0000
  O1     O1        0.383495549138558    0.906944475241757    0.388448604430601  0.0000
  O1     O1        0.868972636399109    0.061188214770214    0.663626032484765  0.0000
  O1     O1        0.613835287128068    0.820423849893239    0.609609256574585  0.0000
  O1     O1        0.916963862630858    0.732713957581522    0.620260737048026  0.0000
  O3     O3        0.589013517509945    0.163212539121695    0.728019882243785  0.0000
  O3     O3        0.095802541553077    0.802306794327528    0.387550198775418  0.0000
  O1     O1        0.419248633201366    0.253027846160946    0.377363908964303  0.0000
  O1     O1        0.978871051640966    0.008457234483445    0.478303139572477  0.0000
  O1     O1        0.531506884246265    0.047715287342428    0.477697860638960  0.0000
  O1     O1        0.017749519923942    0.018196407360210    0.219205540168563  0.0000
  O1     O1        0.494944776547913    0.995880540722281    0.222500361314740  0.0000
  O3     O3        0.025084700883108    0.973902796394616    0.727636484491838  0.0000
  O1     O1        0.468711842064789    0.953859359059375    0.703665651605667  0.0000
  O1     O1        0.574839828328291    0.258197314962096    0.099431520348436  0.0000
  O3     O3        0.902914857496636    0.814540379202599    0.104719363435220  0.0000
  O1     O1        0.411609167603051    0.225234346410738    0.878603861929498  0.0000
  O3     O3        0.065863040211050    0.795452254801665    0.926601539628954  0.0000
  O1     O1        0.356165424494133    0.893549283126031    0.879680166044821  0.0000
  O3     O3        0.124101269801944    0.106549442701928    0.888074285982277  0.0000
  O1     O1        0.639220727270680    0.942730478607231    0.097942599345657  0.0000
  O1     O1        0.880031491891811    0.174102148987181    0.148909960188311  0.0000
  O1     O1        0.507760707846871    0.962153334080136    0.960380921314474  0.0000
  O3     O3        0.982917451733960    0.067584873326215    0.962580561500968  0.0000
  O3     O3        0.165970933453175    0.502806071415994    0.354770978592561  0.0000
  O1     O1        0.346623222007155    0.562800720106386    0.340530697405834  0.0000
  O1     O1        0.867748309693484    0.419792898407115    0.720147785521118  0.0000
  O3     O3        0.628856602697585    0.482257107083046    0.684724548686383  0.0000
  O1     O1        0.266633968630782    0.245350957819644    0.294973803678684  0.0000
  O3     O3        0.232706928158057    0.797404690883655    0.298400692206208  0.0000
  O3     O3        0.732331200758867    0.230851907604055    0.682394549559957  0.0000
  O1     O1        0.760157649017009    0.671596679303938    0.657646129413282  0.0000
  O1     O1        0.136479230286831    0.259144896806312    0.141213683367271  0.0000
  O1     O1        0.354555956031516    0.784180241488580    0.133518288690962  0.0000
  O1     O1        0.821565926984179    0.183328167989836    0.906664963910217  0.0000
  O1     O1        0.658388071454267    0.784958117587071    0.854164169316384  0.0000
  O3     O3        0.859845225266814    0.736775860725198    0.866026337150562  0.0000
  O3     O3        0.677497364922102    0.357226441117437    0.891905071689123  0.0000
  O3     O3        0.119992758574352    0.660775317128719    0.157197613100454  0.0000
  O1     O1        0.383224544002297    0.339043879397156    0.129997619943844  0.0000
  O1     O1        0.622619577482725    0.586089242373032    0.071965256739911  0.0000
  O3     O3        0.869818734971405    0.492560547757203    0.031044324750596  0.0000
  O1     O1        0.339450989229593    0.543820695641847    0.925363787755757  0.0000
  O1     O1        0.140039609971517    0.469579561222103    0.930492285813669  0.0000
  O1     O1        0.736436759975688    0.324342569089607    0.122646703025628  0.0000
  O3     O3        0.762923473831975    0.716293291300166    0.054237768286338  0.0000
  O1     O1        0.260554183734698    0.243746479423773    0.976175938568037  0.0000
  O1     O1        0.221953870011352    0.779027742561757    0.978384540537296  0.0000
