data_c00399.vasp
_audit_creation_method             Generated by GULP
_audit_author_name                 Salvador R. G. Balestra
_symmetry_space_group_name_H-M     'P 1             '
_symmetry_Int_Tables_number        1

loop_
_symmetry_equiv_pos_site_id
_symmetry_equiv_pos_as_xyz
_cell_length_a                       17.4733
_cell_length_b                        7.8678
_cell_length_c                       10.3244
_cell_angle_alpha                   88.7107
_cell_angle_beta                    89.7521
_cell_angle_gamma                   91.9069

loop_
_atom_site_label
_atom_site_type_symbol
_atom_site_fract_x
_atom_site_fract_y
_atom_site_fract_z
_atom_site_charge
  Ge     Ge        0.052090000000021    0.000000000000000    0.372269999999958  0.0000
  Ge     Ge        0.449115926397195    0.059911945045741    0.362607074739573  0.0000
  Ge     Ge        0.948894260114668    0.056637288074149    0.626718133755998  0.0000
  Ge     Ge        0.553293123988900    0.006331404807377    0.614397962647580  0.0000
  Ge     Ge        0.546743353191701    0.995100657449558    0.104069026439155  0.0000
  Ge     Ge        0.956740637561922    0.057206744746735    0.107137509922393  0.0000
  Ge     Ge        0.440321034781069    0.065084818743544    0.854253034166511  0.0000
  Ge     Ge        0.170456875149404    0.290729418564576    0.279391644946231  0.0000
  Ge     Ge        0.328050379438555    0.775198677626051    0.282250329317940  0.0000
  Ge     Ge        0.859190312220451    0.375989979787676    0.732978107986621  0.0000
  Ge     Ge        0.649280969629526    0.692632507953695    0.728242068570070  0.0000
  Ge     Ge        0.675207086452754    0.295781917598991    0.727943306641590  0.0000
  Ge     Ge        0.147911482545677    0.697115780383185    0.286159322835724  0.0000
  Ge     Ge        0.352509350950204    0.369971249123816    0.279393044253706  0.0000
  Ge     Ge        0.673793649619448    0.285657233340876    0.042118129056758  0.0000
  Ge     Ge        0.828442908270973    0.768109026303653    0.042271503665237  0.0000
  Ge     Ge        0.354553617969026    0.386793141153027    0.967178759481305  0.0000
  Ge     Ge        0.166406800978490    0.320649732942234    0.967248507196124  0.0000
  Ge     Ge        0.647407056869927    0.685364810687539    0.045595989679198  0.0000
  Ge     Ge        0.856392786341133    0.369133855787549    0.045875419952587  0.0000
  Si     Si        0.061322723596303    0.020711210049529    0.858502549549892  0.0000
  Si     Si        0.829428793668865    0.766199888991365    0.733140883528705  0.0000
  Si     Si        0.148668585138620    0.710181000890721    0.981946427081321  0.0000
  Si     Si        0.330030022861758    0.775218322080908    0.977719560744129  0.0000
  O1     O1        0.124129642652149    0.153210152225324    0.385647477373074  0.0000
  O1     O1        0.377410397031610    0.905794192139166    0.383764375647275  0.0000
  O1     O1        0.923182905225486    0.262358042210134    0.645618836129117  0.0000
  O1     O1        0.583490751923776    0.804219685168774    0.642745053314553  0.0000
  O3     O3        0.872397077949918    0.917047786710410    0.653071814082313  0.0000
  O1     O1        0.628847138451769    0.144467249642073    0.639018725586416  0.0000
  O1     O1        0.086015309386148    0.798295909924377    0.385248154055537  0.0000
  O1     O1        0.413132409045909    0.258637552712428    0.377644408480044  0.0000
  O1     O1        0.975245356006168    0.033656307746022    0.467239872741681  0.0000
  O1     O1        0.527629569088660    0.025268431246169    0.453495075156683  0.0000
  O1     O1        0.028355915402279    0.017931595450289    0.209673738006728  0.0000
  O1     O1        0.472476758025835    0.040291334306681    0.200491292715304  0.0000
  O3     O3        0.030589942147739    0.006476816725115    0.712959133736132  0.0000
  O1     O1        0.470326741780369    0.048485653532197    0.696636218463059  0.0000
  O1     O1        0.622701671572273    0.136437862973306    0.130118559389558  0.0000
  O1     O1        0.881250819904808    0.911500823921111    0.126397620974217  0.0000
  O1     O1        0.414082101575155    0.271693177958351    0.874080711868825  0.0000
  O2     O2        0.102021243022848    0.845675811869507    0.898346971570726  0.0000
  O3     O3        0.360883567036528    0.932012437120605    0.889819520736621  0.0000
  O3     O3        0.121894512936767    0.177779686528804    0.865896273857712  0.0000
  O1     O1        0.580137697984129    0.793374256999486    0.128426506531189  0.0000
  O1     O1        0.920686305879231    0.254766549575934    0.132784286120684  0.0000
  O1     O1        0.517841418288593    0.011900386334842    0.944483315654196  0.0000
  O3     O3        0.987601703872983    0.049487016592085    0.947073610947062  0.0000
  O1     O1        0.159275282060123    0.493354262914359    0.336975561209584  0.0000
  O1     O1        0.339684509840694    0.568042253901420    0.335979766918608  0.0000
  O3     O3        0.847989374275523    0.582880698642096    0.674720005816653  0.0000
  O1     O1        0.656633290814776    0.494921642110821    0.665113649028672  0.0000
  O1     O1        0.266461082050976    0.255970952733201    0.272023791716952  0.0000
  O1     O1        0.232718070143826    0.815010914899585    0.288438313470690  0.0000
  O1     O1        0.771942593919968    0.269221674350291    0.726215947549383  0.0000
  O3     O3        0.739009952141476    0.795427015385323    0.726995051756298  0.0000
  O1     O1        0.135173562876092    0.282051741955675    0.123029574442925  0.0000
  O3     O3        0.362395716944228    0.791406227524295    0.122874886475760  0.0000
  O1     O1        0.890124972774984    0.383509705730506    0.888826506495922  0.0000
  O1     O1        0.619924079771752    0.672769050498567    0.886117183413557  0.0000
  O3     O3        0.857212236082015    0.768110206516025    0.881175001402470  0.0000
  O1     O1        0.641805918820754    0.281455908436987    0.884381307347128  0.0000
  O3     O3        0.115142022167364    0.694619869585075    0.126328547200436  0.0000
  O1     O1        0.387432287538730    0.380737539238105    0.123030817647760  0.0000
  O1     O1        0.658915359704249    0.484399761200331    0.105114943955964  0.0000
  O1     O1        0.843598010865370    0.566091397086192    0.105217505025599  0.0000
  O3     O3        0.355436431865324    0.599433163713079    0.916445310966799  0.0000
  O3     O3        0.143631140400947    0.526702111518869    0.918157258619020  0.0000
  O1     O1        0.770155798246511    0.255051512226287    0.042564624578375  0.0000
  O1     O1        0.732741253533957    0.802943895769297    0.051039902903125  0.0000
  O1     O1        0.263125791694909    0.301080204047145    0.958495331413106  0.0000
  O2     O2        0.237807671263815    0.770679657308391    0.992758992170396  0.0000
