data_c00373.vasp
_audit_creation_method             Generated by GULP
_audit_author_name                 Salvador R. G. Balestra
_symmetry_space_group_name_H-M     'P 1             '
_symmetry_Int_Tables_number        1

loop_
_symmetry_equiv_pos_site_id
_symmetry_equiv_pos_as_xyz
_cell_length_a                       17.5595
_cell_length_b                        7.8202
_cell_length_c                       10.2765
_cell_angle_alpha                   89.4047
_cell_angle_beta                    91.0847
_cell_angle_gamma                   91.5094

loop_
_atom_site_label
_atom_site_type_symbol
_atom_site_fract_x
_atom_site_fract_y
_atom_site_fract_z
_atom_site_charge
  Ge     Ge        0.052090000000021    0.000000000000000    0.372269999999958  0.0000
  Ge     Ge        0.445751587873402    0.058114136185169    0.322641910370198  0.0000
  Ge     Ge        0.945946527624434    0.051657135823024    0.622480747702829  0.0000
  Ge     Ge        0.549116856694110    0.006510820959829    0.580414487349893  0.0000
  Ge     Ge        0.547186981211689    0.981692728953360    0.071227734065292  0.0000
  Ge     Ge        0.942884097085105    0.046148778938437    0.119939931760031  0.0000
  Ge     Ge        0.439174390124644    0.049868487908763    0.820914834658096  0.0000
  Ge     Ge        0.171633525068196    0.285893108845130    0.261039657767729  0.0000
  Ge     Ge        0.324959893084030    0.764487288712423    0.251512619877234  0.0000
  Ge     Ge        0.845820954004832    0.364807479462564    0.689273351284756  0.0000
  Ge     Ge        0.640120529188599    0.685046679532123    0.699433156541975  0.0000
  Ge     Ge        0.822543936889847    0.766227498684324    0.695330119142899  0.0000
  Ge     Ge        0.142984426539980    0.684534465794932    0.257282136625932  0.0000
  Ge     Ge        0.673450225664283    0.270016644771769    0.003267049450659  0.0000
  Ge     Ge        0.825737757254763    0.749966049643554    0.009712675840266  0.0000
  Ge     Ge        0.345170709427058    0.357578145467567    0.943705010318376  0.0000
  Ge     Ge        0.138639233115176    0.676996655161538    0.941363808585705  0.0000
  Ge     Ge        0.319951103228710    0.763143522820542    0.937575931560138  0.0000
  Ge     Ge        0.163992851110229    0.275214876125533    0.945457198663177  0.0000
  Ge     Ge        0.643906171242913    0.668743270475665    0.014585004356245  0.0000
  Si     Si        0.044227386799347    0.987945682655154    0.876612943429455  0.0000
  Si     Si        0.668605954124198    0.289295870841653    0.693677828077561  0.0000
  Si     Si        0.348635624271008    0.368398851528814    0.252875522238758  0.0000
  Si     Si        0.849726484424046    0.353073268939354    0.999777927247216  0.0000
  O1     O1        0.131205239782458    0.131039764982454    0.356808295773823  0.0000
  O1     O1        0.376317587773263    0.902429056576453    0.348898482368714  0.0000
  O1     O1        0.910541229154381    0.253465238559571    0.604624701073553  0.0000
  O1     O1        0.575703889045866    0.799640204063733    0.609218834629073  0.0000
  O1     O1        0.870811757481531    0.909999768496617    0.599117971139500  0.0000
  O3     O3        0.624172170074509    0.148563711993196    0.608514616352573  0.0000
  O1     O1        0.076629132435431    0.794205821075904    0.340311509415144  0.0000
  O3     O3        0.408902499196327    0.260848655141158    0.337135977246420  0.0000
  O1     O1        0.022402499903395    0.013483583929479    0.530552717505867  0.0000
  O1     O1        0.524236451808048    0.028707907089002    0.418142332731262  0.0000
  O1     O1        0.976162903961058    0.062373994950561    0.277267940373932  0.0000
  O1     O1        0.473391174479838    0.038607247759229    0.163028491128840  0.0000
  O3     O3        0.973094655928848    0.029594590905317    0.785846241120645  0.0000
  O1     O1        0.468336288580393    0.054477416674048    0.662177471532390  0.0000
  O1     O1        0.626119897552332    0.117495627082107    0.089031386378107  0.0000
  O1     O1        0.873247889546509    0.889052164896071    0.111926119447990  0.0000
  O1     O1        0.413263991241139    0.252463132841686    0.863281945638344  0.0000
  O3     O3        0.074440785590054    0.798106043903724    0.852305002249747  0.0000
  O1     O1        0.362987758511801    0.909705390292565    0.837178506986669  0.0000
  O3     O3        0.112979224447973    0.125942699738907    0.855130377777261  0.0000
  O1     O1        0.580126425628948    0.779948997580748    0.103007511859944  0.0000
  O3     O3        0.912984076444230    0.248481824648334    0.077473075597511  0.0000
  O1     O1        0.516776372063674    0.987766132937920    0.910806323697207  0.0000
  O3     O3        0.019703130476809    0.993510031726095    0.027279368626063  0.0000
  O1     O1        0.154317400491102    0.483895592694405    0.323151001793571  0.0000
  O3     O3        0.338338753818841    0.555896229902282    0.308903337573977  0.0000
  O1     O1        0.838750713001673    0.567168132878227    0.631150531481073  0.0000
  O3     O3        0.652363241038735    0.480062316191580    0.640305654599499  0.0000
  O3     O3        0.268950288071965    0.260557702734413    0.252357456670290  0.0000
  O1     O1        0.228950265128328    0.797142092766931    0.257534592319426  0.0000
  O3     O3        0.758346691652469    0.256198284825796    0.686665183955725  0.0000
  O1     O1        0.726369869126696    0.794628694226844    0.694853335020526  0.0000
  O1     O1        0.136016493982286    0.266272631934504    0.104752337128431  0.0000
  O1     O1        0.355665558825651    0.787700278733579    0.094033884585976  0.0000
  O3     O3        0.874159053464270    0.380547545924983    0.851363110269139  0.0000
  O1     O1        0.610285060858495    0.665436201212527    0.855629530210123  0.0000
  O1     O1        0.856183683308369    0.781191489962360    0.853758702360645  0.0000
  O3     O3        0.641449636882065    0.272830257494353    0.842337791476971  0.0000
  O1     O1        0.111742863453770    0.652644601656768    0.100214046754088  0.0000
  O3     O3        0.374773833678851    0.386756133338709    0.104037905165730  0.0000
  O1     O1        0.654262256255410    0.465217203274924    0.070393585640012  0.0000
  O3     O3        0.839253807873008    0.538862335837490    0.060563360732639  0.0000
  O1     O1        0.334100328639901    0.559449280168065    0.881592657859203  0.0000
  O1     O1        0.147505016794331    0.476544701357212    0.880384372472284  0.0000
  O3     O3        0.770697276709380    0.242191259662480    0.005932314535421  0.0000
  O1     O1        0.729823816149274    0.780543123794646    0.014229457574349  0.0000
  O1     O1        0.260134121257361    0.242894666087320    0.936762810429375  0.0000
  O1     O1        0.223792868483049    0.790714103906703    0.942468925710784  0.0000
