data_c00371.vasp
_audit_creation_method             Generated by GULP
_audit_author_name                 Salvador R. G. Balestra
_symmetry_space_group_name_H-M     'P 1             '
_symmetry_Int_Tables_number        1

loop_
_symmetry_equiv_pos_site_id
_symmetry_equiv_pos_as_xyz
_cell_length_a                       17.6745
_cell_length_b                        7.8206
_cell_length_c                       10.1662
_cell_angle_alpha                   91.8367
_cell_angle_beta                    90.6705
_cell_angle_gamma                   88.7206

loop_
_atom_site_label
_atom_site_type_symbol
_atom_site_fract_x
_atom_site_fract_y
_atom_site_fract_z
_atom_site_charge
  Ge     Ge        0.052090000000021    0.000000000000000    0.372269999999958  0.0000
  Ge     Ge        0.452314457428125    0.961208276195099    0.361141155109860  0.0000
  Ge     Ge        0.943283799520189    0.918524945478269    0.614305381348334  0.0000
  Ge     Ge        0.550145960261572    0.986973843170628    0.623529854431189  0.0000
  Ge     Ge        0.547848591548061    0.005604983145980    0.093124252261567  0.0000
  Ge     Ge        0.950764597165990    0.940179702775633    0.111036029795705  0.0000
  Ge     Ge        0.432878063374222    0.933351810935091    0.847955239368236  0.0000
  Ge     Ge        0.146673165701438    0.311832997830710    0.298200278080598  0.0000
  Ge     Ge        0.355041644871300    0.641357368573023    0.284353972023602  0.0000
  Ge     Ge        0.819476119794779    0.207236512333270    0.723758730839581  0.0000
  Ge     Ge        0.666189363446492    0.686022130979025    0.724601975914346  0.0000
  Ge     Ge        0.849156856336056    0.609723541687525    0.722759978492537  0.0000
  Ge     Ge        0.174167655118579    0.714452658214606    0.293127446586311  0.0000
  Ge     Ge        0.325756622357078    0.234854214748036    0.286054640424045  0.0000
  Ge     Ge        0.849235172399087    0.627197869483930    0.043993306079833  0.0000
  Ge     Ge        0.163859819771433    0.696396248245685    0.974538040903810  0.0000
  Ge     Ge        0.345985894301035    0.620157200595546    0.967726331306975  0.0000
  Ge     Ge        0.141434778529536    0.294505846717147    0.978048411541323  0.0000
  Ge     Ge        0.668206512915206    0.705873062716320    0.040766516654392  0.0000
  Ge     Ge        0.822891880851461    0.224336142897220    0.050993244717076  0.0000
  Si     Si        0.049606101780529    0.981428652163180    0.859426931468411  0.0000
  Si     Si        0.648358113383911    0.294832548777382    0.733108138472732  0.0000
  Si     Si        0.652560492035901    0.313902196175923    0.047286249529097  0.0000
  Si     Si        0.319562023346198    0.223292953723478    0.973180059096409  0.0000
  O1     O1        0.084685247769901    0.204185347540547    0.393249846592552  0.0000
  O1     O1        0.420501744069124    0.756072897804098    0.373914111788578  0.0000
  O1     O1        0.864706542302191    0.046056114776638    0.638638470078711  0.0000
  O1     O1        0.617414265114860    0.827867581415508    0.628533342479943  0.0000
  O1     O1        0.915508533565394    0.713165960079828    0.634065120729014  0.0000
  O3     O3        0.577218945430567    0.183012654338233    0.693115137478130  0.0000
  O1     O1        0.126313971459332    0.857739385840907    0.393514789174850  0.0000
  O1     O1        0.376085290809430    0.100554918330860    0.383199252670533  0.0000
  O1     O1        0.973669231741273    0.950033632542544    0.456892628405704  0.0000
  O1     O1        0.528143335129616    0.007659096731973    0.458627616425559  0.0000
  O1     O1        0.026713916033090    0.982910745093307    0.206538958970474  0.0000
  O1     O1        0.475651125458335    0.993735347358219    0.199243225143784  0.0000
  O3     O3        0.021975741401226    0.973299227793722    0.708479459181272  0.0000
  O1     O1        0.463695428689989    0.942689168303731    0.688832667909201  0.0000
  O3     O3        0.581878015556430    0.214193442407433    0.096441428613306  0.0000
  O1     O1        0.913950378732623    0.741987726124508    0.133693526138287  0.0000
  O3     O3        0.359703539505788    0.077167039968652    0.883256620822081  0.0000
  O3     O3        0.118416214886978    0.847976628709755    0.881130196241625  0.0000
  O1     O1        0.403780607883340    0.727692272436619    0.867442978525443  0.0000
  O3     O3        0.076473013140041    0.173379488944088    0.892082132990789  0.0000
  O1     O1        0.617500479339902    0.856759055545863    0.130224539066707  0.0000
  O1     O1        0.877472913841694    0.086156194394301    0.137695146416186  0.0000
  O1     O1        0.513939315697352    0.973860169364647    0.936077568721963  0.0000
  O3     O3        0.977620981246002    0.939675360458987    0.946494450289544  0.0000
  O1     O1        0.161417969508908    0.514487753828442    0.356630025808143  0.0000
  O1     O1        0.342408171988966    0.442170276011310    0.341546525444064  0.0000
  O1     O1        0.842238897978444    0.402522721368047    0.664685943737727  0.0000
  O3     O3        0.646729514672173    0.478029723300734    0.666995637833090  0.0000
  O1     O1        0.231183933878160    0.196774434821600    0.294885303167888  0.0000
  O1     O1        0.268882629941271    0.751843333490325    0.286687596166230  0.0000
  O3     O3        0.722883020850531    0.182399066917329    0.697144888452489  0.0000
  O1     O1        0.761893827392720    0.712647218604866    0.715279663526574  0.0000
  O1     O1        0.113645525155855    0.320071681756459    0.138140751655471  0.0000
  O1     O1        0.384333669769573    0.628602266100901    0.123161445445006  0.0000
  O1     O1        0.843184495622067    0.194274087993057    0.886975111660514  0.0000
  O1     O1        0.635586295802357    0.727131814252231    0.881702290980337  0.0000
  O1     O1        0.878285144667591    0.603998096929288    0.883598301402210  0.0000
  O2     O2        0.655364964304415    0.346069498572787    0.889281144691081  0.0000
  O1     O1        0.136260632640612    0.716213646292978    0.135578322028536  0.0000
  O3     O3        0.352186320383692    0.219417404365282    0.121153818948238  0.0000
  O3     O3        0.653979743815888    0.505554921791005    0.107238124800106  0.0000
  O1     O1        0.841379103070342    0.429491799725905    0.106367668263240  0.0000
  O3     O3        0.334707796172812    0.409267276606471    0.915195411000099  0.0000
  O1     O1        0.144086011427534    0.493752461313396    0.913500125923848  0.0000
  O3     O3        0.727032856772727    0.199363631118738    0.078642297298998  0.0000
  O1     O1        0.763534442796340    0.738546200960595    0.044022111640585  0.0000
  O3     O3        0.229886223723457    0.194323326571708    0.974655044395280  0.0000
  O1     O1        0.259271074157181    0.723320097818931    0.969535717966344  0.0000
