data_c00323.vasp
_audit_creation_method             Generated by GULP
_audit_author_name                 Salvador R. G. Balestra
_symmetry_space_group_name_H-M     'P 1             '
_symmetry_Int_Tables_number        1

loop_
_symmetry_equiv_pos_site_id
_symmetry_equiv_pos_as_xyz
_cell_length_a                       17.4261
_cell_length_b                        7.8025
_cell_length_c                       10.4188
_cell_angle_alpha                   92.9634
_cell_angle_beta                    88.3466
_cell_angle_gamma                   86.9518

loop_
_atom_site_label
_atom_site_type_symbol
_atom_site_fract_x
_atom_site_fract_y
_atom_site_fract_z
_atom_site_charge
  Ge     Ge        0.052090000000021    0.000000000000000    0.372269999999958  0.0000
  Ge     Ge        0.463218674106936    0.987898160138095    0.362083311944968  0.0000
  Ge     Ge        0.974437675887741    0.914269124500840    0.652154677918658  0.0000
  Ge     Ge        0.569366738163259    0.970151918339450    0.611189735147776  0.0000
  Ge     Ge        0.560283012535163    0.015843553006552    0.098032205059518  0.0000
  Ge     Ge        0.954529733992222    0.981897877461620    0.111989186032232  0.0000
  Ge     Ge        0.451585103736690    0.972815097168682    0.853269210669501  0.0000
  Ge     Ge        0.173763947794026    0.271988427987177    0.298516265679829  0.0000
  Ge     Ge        0.334353135375460    0.728795695700625    0.291388586541417  0.0000
  Ge     Ge        0.843663400291718    0.218787576761625    0.737594943656750  0.0000
  Ge     Ge        0.695127525707516    0.683779946272094    0.715917018395314  0.0000
  Ge     Ge        0.879634782295179    0.600014901409742    0.713681179756749  0.0000
  Ge     Ge        0.666464181022739    0.273812629778960    0.734903658219410  0.0000
  Ge     Ge        0.360951486465372    0.300595600286651    0.281085523013443  0.0000
  Ge     Ge        0.649980152981935    0.335937901244013    0.042579014736207  0.0000
  Ge     Ge        0.875889814750775    0.638489600240580    0.033231719014472  0.0000
  Ge     Ge        0.338238190528493    0.702454702126957    0.980783854958656  0.0000
  Ge     Ge        0.172678941345685    0.269126358780259    0.990308628596418  0.0000
  Ge     Ge        0.690067627721239    0.730328698887070    0.024375921322340  0.0000
  Ge     Ge        0.827305571193432    0.272621686810516    0.053109111518501  0.0000
  Si     Si        0.075826104611321    0.972671529515904    0.891498874915522  0.0000
  Si     Si        0.162711590699877    0.668703556421406    0.298344589553646  0.0000
  Si     Si        0.361717091502409    0.298264893731641    0.983798444941399  0.0000
  Si     Si        0.164369733108359    0.652197917082170    0.992407517654468  0.0000
  O1     O1        0.122984526886627    0.140426870507833    0.392193694775724  0.0000
  O1     O1        0.390027565698285    0.850878066357263    0.386339262888745  0.0000
  O1     O1        0.896486511674348    0.029028890119397    0.727447393489285  0.0000
  O1     O1        0.643217500902196    0.817965328228969    0.621762181532012  0.0000
  O1     O1        0.946259007473508    0.709831115287434    0.629201548598479  0.0000
  O1     O1        0.598330511935631    0.171417266759214    0.648944828044668  0.0000
  O3     O3        0.088647956541889    0.791711053065109    0.330965942457613  0.0000
  O1     O1        0.422554054963105    0.195471564990021    0.377634042788645  0.0000
  O1     O1        0.996511475018457    0.002072989946557    0.510274506857809  0.0000
  O1     O1        0.540619617821109    0.959492671595778    0.454329416285865  0.0000
  O1     O1        0.993958779867166    0.057462870004698    0.249897035129338  0.0000
  O1     O1        0.494738639764180    0.948237250730921    0.205296753170239  0.0000
  O3     O3        0.054875672992426    0.919913989450111    0.747850554743420  0.0000
  O1     O1        0.486659787081020    0.937038496677970    0.699181896299371  0.0000
  O1     O1        0.578678474036800    0.229867806014701    0.120059514731572  0.0000
  O1     O1        0.938057623086569    0.768124670007796    0.112223370527200  0.0000
  O3     O3        0.407942352477043    0.179558498231166    0.876063158938595  0.0000
  O2     O2        0.100769419848866    0.805081055380820    0.972520746622853  0.0000
  O1     O1        0.383449256810931    0.826061675242823    0.876862097061384  0.0000
  O3     O3        0.141298891416894    0.109018454539531    0.887300069445439  0.0000
  O1     O1        0.647491190328550    0.901272722757582    0.110906423779687  0.0000
  O1     O1        0.864220610221713    0.079218972694672    0.095710392553443  0.0000
  O1     O1        0.528678041602762    0.949602851174937    0.948596205073713  0.0000
  O3     O3        0.002864116174374    0.051362167358107    0.976161911145113  0.0000
  O3     O3        0.150946559381721    0.483672817410553    0.352718254455051  0.0000
  O1     O1        0.363863441492779    0.516694168442084    0.302324015309601  0.0000
  O1     O1        0.897024338391180    0.382172941782911    0.683866616291681  0.0000
  O1     O1        0.652120159503866    0.491893248070490    0.722904850447664  0.0000
  O1     O1        0.270030691503031    0.230656358284276    0.309933925152243  0.0000
  O3     O3        0.238863898388589    0.752973115471044    0.348777289017436  0.0000
  O1     O1        0.755673271983475    0.201402818957373    0.669314720607769  0.0000
  O1     O1        0.788545076114910    0.643732322643467    0.660149658225551  0.0000
  O1     O1        0.146111287930905    0.223872443989198    0.143105391587141  0.0000
  O1     O1        0.340902359333361    0.789198646549326    0.134936299538427  0.0000
  O1     O1        0.812588903161124    0.296832372064745    0.889998612307844  0.0000
  O1     O1        0.699670561960024    0.781600966377039    0.866009045488793  0.0000
  O1     O1        0.891056808749052    0.667225389985642    0.872063606591450  0.0000
  O1     O1        0.652174639751028    0.227941048770340    0.892788268880032  0.0000
  O2     O2        0.181349779190700    0.627632485936253    0.144236279101769  0.0000
  O3     O3        0.387839810037810    0.236656622274596    0.121835327967325  0.0000
  O1     O1        0.633744901385171    0.552619842286748    0.034824633150376  0.0000
  O1     O1        0.890469077080324    0.432463058928359    0.082801220259182  0.0000
  O3     O3        0.380335498120544    0.496035452070988    0.971577236226997  0.0000
  O3     O3        0.135517862826434    0.469022170901973    0.944230169999446  0.0000
  O1     O1        0.736123919983323    0.302758298147593    0.118182157528283  0.0000
  O1     O1        0.779941606867769    0.678650674345295    0.076867096493224  0.0000
  O3     O3        0.270196878474213    0.282643224861220    0.976547019215543  0.0000
  O3     O3        0.244018544888938    0.698775421561889    0.928202287986296  0.0000
