data_c00367.vasp
_audit_creation_method             Generated by GULP
_audit_author_name                 Salvador R. G. Balestra
_symmetry_space_group_name_H-M     'P 1             '
_symmetry_Int_Tables_number        1

loop_
_symmetry_equiv_pos_site_id
_symmetry_equiv_pos_as_xyz
_cell_length_a                       17.5891
_cell_length_b                        7.8321
_cell_length_c                       10.2129
_cell_angle_alpha                   91.1644
_cell_angle_beta                    91.9616
_cell_angle_gamma                   92.2923

loop_
_atom_site_label
_atom_site_type_symbol
_atom_site_fract_x
_atom_site_fract_y
_atom_site_fract_z
_atom_site_charge
  Ge     Ge        0.052090000000021    0.000000000000000    0.372269999999958  0.0000
  Ge     Ge        0.456630012516364    0.067041038630633    0.359021846359720  0.0000
  Ge     Ge        0.939975843711369    0.034281101582131    0.616182861492787  0.0000
  Ge     Ge        0.546068333505220    0.986902152764166    0.622380902914681  0.0000
  Ge     Ge        0.551486282647063    0.018149332255068    0.091401844753002  0.0000
  Ge     Ge        0.950651995786264    0.073268768628918    0.109798484272291  0.0000
  Ge     Ge        0.432219559603856    0.058359702138904    0.845099717579954  0.0000
  Ge     Ge        0.173552900431699    0.285870572004184    0.291230128606648  0.0000
  Ge     Ge        0.328841839101060    0.776744793748384    0.290011733783051  0.0000
  Ge     Ge        0.842437555639629    0.343094674759057    0.731573932853947  0.0000
  Ge     Ge        0.635915442166599    0.668688317000295    0.725621781389020  0.0000
  Ge     Ge        0.820964311024649    0.745297837429871    0.714304328320140  0.0000
  Ge     Ge        0.148948553290919    0.687926540387434    0.301477131346024  0.0000
  Ge     Ge        0.354264857320953    0.372071146263980    0.284213641315922  0.0000
  Ge     Ge        0.827746831057649    0.778684991021992    0.029256200329693  0.0000
  Ge     Ge        0.345719102811258    0.372754580733741    0.966288926814934  0.0000
  Ge     Ge        0.133963157787193    0.683860813700638    0.983470253127773  0.0000
  Ge     Ge        0.316066790493446    0.773635605604766    0.972135326620762  0.0000
  Ge     Ge        0.162737034615789    0.283235332570317    0.973105737483117  0.0000
  Ge     Ge        0.847665985847342    0.380282245285488    0.062575809227732  0.0000
  Si     Si        0.046586236457628    0.991510063477970    0.863433893317920  0.0000
  Si     Si        0.667834032427720    0.280270390195786    0.739758800202782  0.0000
  Si     Si        0.673142793340505    0.324250708044861    0.054739778843374  0.0000
  Si     Si        0.645931095479122    0.704619236162691    0.030380190121696  0.0000
  O1     O1        0.126476393735508    0.148966221947003    0.391648427152106  0.0000
  O1     O1        0.384346566663575    0.916798895158388    0.384762248633874  0.0000
  O1     O1        0.911134585365876    0.233198537339216    0.657275071582788  0.0000
  O1     O1        0.571384781903868    0.778583824850181    0.633529051863346  0.0000
  O1     O1        0.864423912959072    0.890858575354628    0.615268399038993  0.0000
  O3     O3        0.615540806628841    0.116021169626994    0.703216784901814  0.0000
  O1     O1        0.086999231466531    0.800536607897465    0.393018223219066  0.0000
  O1     O1        0.420930492731392    0.266669308446495    0.374232651558067  0.0000
  O1     O1        0.974834367677596    0.040616435209959    0.460761428344906  0.0000
  O1     O1        0.534098926662187    0.038495355853544    0.460301212178041  0.0000
  O1     O1        0.022789043031714    0.013451550383563    0.208606240347657  0.0000
  O1     O1        0.480856125303069    0.038182146078772    0.197853360706392  0.0000
  O3     O3        0.017430790410454    0.977417868859752    0.713062947066085  0.0000
  O1     O1        0.459296013925362    0.025793915470279    0.687045413307318  0.0000
  O3     O3        0.616284497899739    0.190389226112118    0.117359831321955  0.0000
  O1     O1        0.869173004023494    0.943798946006379    0.118269455377521  0.0000
  O1     O1        0.407740777137013    0.265705012902602    0.871912220677519  0.0000
  O3     O3        0.064857653745797    0.800443553926535    0.907055770278262  0.0000
  O1     O1        0.355133206685265    0.927660018324181    0.876839464747978  0.0000
  O3     O3        0.120505840487342    0.119189728908471    0.877621580164732  0.0000
  O3     O3        0.597744735176721    0.828673499943616    0.118085798982760  0.0000
  O1     O1        0.918537687922173    0.274640693122485    0.141006114073486  0.0000
  O1     O1        0.512999262179892    0.013100320319080    0.936104437381275  0.0000
  O3     O3        0.980418178747672    0.067056778278819    0.949190969048829  0.0000
  O1     O1        0.164211147784698    0.488937821788820    0.357865374759762  0.0000
  O1     O1        0.342258392962172    0.572546889014004    0.345341342670234  0.0000
  O1     O1        0.842688681222077    0.542662463905257    0.667194050531617  0.0000
  O3     O3        0.636193368965760    0.453629093531714    0.678828722263071  0.0000
  O1     O1        0.269129569655710    0.252982474686083    0.283985140718096  0.0000
  O1     O1        0.233104491318483    0.809265964458224    0.297182644147373  0.0000
  O3     O3        0.752507361192894    0.247277539321297    0.696100513382354  0.0000
  O1     O1        0.724158378986550    0.761422513628624    0.704676070126825  0.0000
  O1     O1        0.135310296428136    0.269277194161254    0.132909375334066  0.0000
  O1     O1        0.354468207855920    0.790140186722742    0.128843156399466  0.0000
  O1     O1        0.859065810475446    0.354377050887235    0.896833639464494  0.0000
  O3     O3        0.607077737092117    0.688301024178157    0.885579072627320  0.0000
  O1     O1        0.857132328079669    0.787128339704840    0.870638225212622  0.0000
  O2     O2        0.672410796157602    0.315760621769797    0.896592303130075  0.0000
  O1     O1        0.112108732207265    0.659238535896828    0.143797688972690  0.0000
  O1     O1        0.381872556306087    0.386196179476894    0.124568966879303  0.0000
  O2     O2        0.650661390279468    0.517910735040579    0.095380574464204  0.0000
  O1     O1        0.853878906344415    0.592758924444616    0.101855880788616  0.0000
  O1     O1        0.333330375763696    0.573610004693105    0.908606666075327  0.0000
  O1     O1        0.139704698953025    0.481785326489885    0.916120236229604  0.0000
  O3     O3        0.758649953539912    0.296824226889677    0.104718659679202  0.0000
  O3     O3        0.730052354528649    0.787721606988638    0.015834755692892  0.0000
  O1     O1        0.258976292202315    0.263110523958283    0.967938440214371  0.0000
  O1     O1        0.219798315816473    0.794891739131007    0.976628131389836  0.0000
