data_c00321.vasp
_audit_creation_method             Generated by GULP
_audit_author_name                 Salvador R. G. Balestra
_symmetry_space_group_name_H-M     'P 1             '
_symmetry_Int_Tables_number        1

loop_
_symmetry_equiv_pos_site_id
_symmetry_equiv_pos_as_xyz
_cell_length_a                       17.4532
_cell_length_b                        7.8617
_cell_length_c                       10.6036
_cell_angle_alpha                   91.5161
_cell_angle_beta                    89.5230
_cell_angle_gamma                   90.8396

loop_
_atom_site_label
_atom_site_type_symbol
_atom_site_fract_x
_atom_site_fract_y
_atom_site_fract_z
_atom_site_charge
  Ge     Ge        0.052090000000021    0.000000000000000    0.372269999999958  0.0000
  Ge     Ge        0.452606352271254    0.994772847059782    0.350004502538313  0.0000
  Ge     Ge        0.956579634977810    0.007406542131048    0.635550654303413  0.0000
  Ge     Ge        0.552330540235528    0.969515497093036    0.605649663982241  0.0000
  Ge     Ge        0.552518419624676    0.990580556905174    0.088811088770400  0.0000
  Ge     Ge        0.945647505925241    0.022352204871251    0.125949027188347  0.0000
  Ge     Ge        0.440600888003858    0.984882623845885    0.847576603524027  0.0000
  Ge     Ge        0.150440014131745    0.312869824006306    0.269303508167959  0.0000
  Ge     Ge        0.348973721383468    0.680816775097667    0.261195821595854  0.0000
  Ge     Ge        0.859343909978465    0.327760789413232    0.710371482757401  0.0000
  Ge     Ge        0.646634018645814    0.658020272761487    0.707191229287400  0.0000
  Ge     Ge        0.828984425919009    0.728611909329261    0.706053486495902  0.0000
  Ge     Ge        0.677837965740032    0.255888696840742    0.713104272457463  0.0000
  Ge     Ge        0.333222679738449    0.268401875567519    0.269576749666610  0.0000
  Ge     Ge        0.678725737162790    0.267758902370732    0.021016193196168  0.0000
  Ge     Ge        0.826627687438768    0.739293164649310    0.014256237396627  0.0000
  Ge     Ge        0.164072807847905    0.680700669264775    0.954422544554403  0.0000
  Ge     Ge        0.352245683978119    0.655872631706058    0.953271445654411  0.0000
  Ge     Ge        0.644563206709201    0.663025453773464    0.014490631298720  0.0000
  Ge     Ge        0.859944362849241    0.341395865748124    0.018814985693217  0.0000
  Si     Si        0.056169441289193    0.972417921664685    0.889111972859844  0.0000
  Si     Si        0.168860413987216    0.715518268160646    0.256457179273383  0.0000
  Si     Si        0.332608573839445    0.261347768859601    0.972717644669702  0.0000
  Si     Si        0.148704891310528    0.292329338067820    0.974512190985774  0.0000
  O1     O1        0.087529675786834    0.204441398805636    0.361734074370068  0.0000
  O1     O1        0.408646869487224    0.798272904388451    0.356599440264186  0.0000
  O1     O1        0.925784494623112    0.212117054667627    0.625556277099272  0.0000
  O1     O1        0.578624328136186    0.762040478406377    0.623783745294233  0.0000
  O1     O1        0.877366593561488    0.875981981683085    0.619441608634402  0.0000
  O1     O1        0.632297653431693    0.092386247257280    0.634091942017867  0.0000
  O3     O3        0.121021273419756    0.851007947434855    0.336593167057639  0.0000
  O1     O1        0.383448243719861    0.147433783228473    0.369732385717219  0.0000
  O1     O1        0.025027944220839    0.964227123134342    0.524882315734148  0.0000
  O1     O1        0.526217732234774    0.006559957503854    0.453090275109823  0.0000
  O1     O1        0.973900143824718    0.983097791700408    0.276409436544270  0.0000
  O1     O1        0.485896171927295    0.034776061849632    0.200904705387369  0.0000
  O3     O3        0.991750374347960    0.971382073526497    0.785125053676758  0.0000
  O1     O1        0.472917553494579    0.016917550181097    0.697272856360795  0.0000
  O1     O1        0.634009936063156    0.114785319433790    0.106859715658997  0.0000
  O1     O1        0.862819577483944    0.906670233642193    0.100964986454931  0.0000
  O3     O3        0.360646219405320    0.108603532757628    0.882976773399766  0.0000
  O3     O3        0.113237072940262    0.816681285888798    0.863847477736857  0.0000
  O1     O1        0.412985268554372    0.774902684287836    0.862840997141690  0.0000
  O2     O2        0.107358481253371    0.147630066389753    0.887820973244813  0.0000
  O1     O1        0.579026793534029    0.781215870806884    0.098106358170870  0.0000
  O1     O1        0.925615628389135    0.232567955385081    0.104010270312475  0.0000
  O1     O1        0.515674396958420    0.038704096442899    0.943514786274960  0.0000
  O3     O3        0.016510337369238    0.948380890038462    0.024175984920483  0.0000
  O3     O3        0.156866735837881    0.526120406463972    0.310094929187152  0.0000
  O1     O1        0.347786124858815    0.478479327327641    0.312146200421456  0.0000
  O1     O1        0.878592591746093    0.540771188961689    0.700916302665378  0.0000
  O1     O1        0.628038270183681    0.442238783509496    0.702843909541054  0.0000
  O1     O1        0.237813242760945    0.220952610582907    0.283605175027086  0.0000
  O3     O3        0.257860637403057    0.766332184171462    0.263556246274719  0.0000
  O1     O1        0.768511223004321    0.288736297422617    0.653380831084451  0.0000
  O1     O1        0.737801779621641    0.693264136304322    0.649377543544408  0.0000
  O3     O3        0.115956345052245    0.283563759083783    0.115943132937800  0.0000
  O1     O1        0.378841898128287    0.695724076211094    0.106691533265867  0.0000
  O1     O1        0.863605897052460    0.266965557459640    0.864985728632815  0.0000
  O1     O1        0.640219122511672    0.730540249923410    0.861203961343876  0.0000
  O1     O1        0.819529012865168    0.797653612258651    0.860026510305995  0.0000
  O1     O1        0.688717790776329    0.199905427835276    0.866663451613412  0.0000
  O3     O3        0.142477861082144    0.711894862653223    0.111959434149785  0.0000
  O3     O3        0.363147794278284    0.238886654147215    0.113377142024023  0.0000
  O1     O1        0.624453417229031    0.450155551901039    0.023756486402623  0.0000
  O1     O1        0.879792455558361    0.556627529758841    0.023623418749691  0.0000
  O3     O3        0.362107528530290    0.440232464739193    0.918667229367238  0.0000
  O3     O3        0.135662030599358    0.473307015198961    0.914217773460992  0.0000
  O1     O1        0.768687930638762    0.310602517528574    0.078241465635947  0.0000
  O1     O1        0.736094628421573    0.693318226421256    0.069092203145039  0.0000
  O2     O2        0.240267404938834    0.267994121954932    0.985736407904597  0.0000
  O1     O1        0.259255357585965    0.712575457425336    0.926566730796101  0.0000
