data_c00393.vasp
_audit_creation_method             Generated by GULP
_audit_author_name                 Salvador R. G. Balestra
_symmetry_space_group_name_H-M     'P 1             '
_symmetry_Int_Tables_number        1

loop_
_symmetry_equiv_pos_site_id
_symmetry_equiv_pos_as_xyz
_cell_length_a                       16.8504
_cell_length_b                        7.8445
_cell_length_c                       10.6606
_cell_angle_alpha                   81.8371
_cell_angle_beta                    90.8177
_cell_angle_gamma                   89.7452

loop_
_atom_site_label
_atom_site_type_symbol
_atom_site_fract_x
_atom_site_fract_y
_atom_site_fract_z
_atom_site_charge
  Ge     Ge        0.052090000000021    0.000000000000000    0.372269999999958  0.0000
  Ge     Ge        0.475902065152365    0.997199525317639    0.381240129872541  0.0000
  Ge     Ge        0.970606747872542    0.072825767246120    0.635325407051276  0.0000
  Ge     Ge        0.550949403289505    0.093608057833706    0.642003039175589  0.0000
  Ge     Ge        0.594115094881673    0.968752598581337    0.151111943709950  0.0000
  Ge     Ge        0.967918734151204    0.963325157268406    0.093620524263978  0.0000
  Ge     Ge        0.463623325437543    0.116022057622869    0.916682468021353  0.0000
  Ge     Ge        0.167864903334842    0.319202663040490    0.273509074929098  0.0000
  Ge     Ge        0.372303618681775    0.691918644972204    0.319279959140747  0.0000
  Ge     Ge        0.867140111638802    0.384456195185686    0.686114871133671  0.0000
  Ge     Ge        0.674416507069542    0.777472396778922    0.739121857171865  0.0000
  Ge     Ge        0.672670600601203    0.364030189056931    0.707501008027770  0.0000
  Ge     Ge        0.177979324114892    0.737351901917915    0.299682328495555  0.0000
  Ge     Ge        0.352013587665086    0.304936966210563    0.277950603443911  0.0000
  Ge     Ge        0.679563960052224    0.268202125104686    0.998515081868112  0.0000
  Ge     Ge        0.863751466557316    0.637740610014479    0.033559707407402  0.0000
  Ge     Ge        0.355388498025513    0.441362579905730    0.965329943928078  0.0000
  Ge     Ge        0.173705535501907    0.818413573589484    0.006262232639517  0.0000
  Ge     Ge        0.169483106372502    0.424183478812103    0.964983797473859  0.0000
  Ge     Ge        0.677550104812573    0.661029689315395    0.041562420755817  0.0000
  Si     Si        0.089523096633823    0.115229736701236    0.863088673211184  0.0000
  Si     Si        0.854442431328422    0.761726755126827    0.729667386238737  0.0000
  Si     Si        0.364617068002540    0.795204016442141    0.029383739235601  0.0000
  Si     Si        0.868804856542577    0.282138151859185    0.975234136072695  0.0000
  O1     O1        0.095511173930504    0.198733500393159    0.352252322961075  0.0000
  O1     O1        0.432203776202571    0.799416292517691    0.413227343102396  0.0000
  O1     O1        0.921205418209061    0.264732260461371    0.594145276673512  0.0000
  O1     O1        0.610738124273818    0.914414183212363    0.649808213689233  0.0000
  O3     O3        0.913508364981984    0.918400069947752    0.727080466386989  0.0000
  O1     O1        0.607414874169460    0.275127297881839    0.610242576913957  0.0000
  O1     O1        0.121769124854431    0.839067922071351    0.400085681915566  0.0000
  O1     O1        0.414438844648717    0.135908364294858    0.280701312759341  0.0000
  O1     O1        0.993514137653217    0.986351114455378    0.503970372574663  0.0000
  O1     O1        0.487927379990552    0.091275337532992    0.513428724724755  0.0000
  O1     O1        0.989699757078636    0.982751139643169    0.245600898526797  0.0000
  O1     O1        0.562787972833339    0.981606287421364    0.299941757988217  0.0000
  O3     O3        0.054567661283423    0.100915119348929    0.726261970418149  0.0000
  O1     O1        0.490586904517651    0.077777841896861    0.770977020915155  0.0000
  O1     O1        0.677350211969659    0.098295949801726    0.115183134660774  0.0000
  O1     O1        0.936447674448771    0.755986515389833    0.088754540190222  0.0000
  O1     O1        0.426509108125094    0.322540035615781    0.906862533772343  0.0000
  O3     O3        0.169591694917665    0.996444440437521    0.890745528956446  0.0000
  O3     O3        0.382826051114203    0.984613716938377    0.962189206571112  0.0000
  O3     O3        0.105151791459181    0.311223419564337    0.875195481014942  0.0000
  O1     O1        0.615050091056839    0.761333742459323    0.137201811935607  0.0000
  O3     O3        0.885577861099208    0.094768313913264    0.048858304787041  0.0000
  O1     O1        0.536427496675225    0.087196116970396    0.030582948646262  0.0000
  O3     O3        0.039809533386736    0.007096777061973    0.980555254781733  0.0000
  O1     O1        0.154755591129333    0.525895292168271    0.302773030935040  0.0000
  O1     O1        0.383706269777183    0.474142917231830    0.354781024906378  0.0000
  O3     O3        0.884664750972755    0.604227264965886    0.658242830316011  0.0000
  O1     O1        0.648848639656784    0.571256467435196    0.720680692111841  0.0000
  O1     O1        0.259320906929833    0.242516576682922    0.330784378454251  0.0000
  O1     O1        0.275917105194273    0.756081134626437    0.337685779553337  0.0000
  O1     O1        0.768349165155733    0.347408536896275    0.659319526770138  0.0000
  O3     O3        0.768046924958807    0.826191564412392    0.676570685229413  0.0000
  O1     O1        0.161622446113841    0.308613805837180    0.113480985033253  0.0000
  O3     O3        0.407430464844637    0.770926218168698    0.167746773025069  0.0000
  O3     O3        0.904031712490271    0.291093767030830    0.834299350573167  0.0000
  O1     O1        0.668884768480585    0.793989318275508    0.897643272755027  0.0000
  O3     O3        0.837861799678403    0.675497696825442    0.873492684924415  0.0000
  O1     O1        0.646802027281240    0.237888701893130    0.849363943318086  0.0000
  O1     O1        0.142210323133942    0.845315518137549    0.155218234629814  0.0000
  O1     O1        0.335286220289602    0.401692531207541    0.124693073370707  0.0000
  O1     O1        0.641896793526582    0.457209911158439    0.041269955416127  0.0000
  O3     O3        0.903667218388177    0.428834069812135    0.051939662687628  0.0000
  O3     O3        0.393050920040454    0.651600123490200    0.945499839789669  0.0000
  O1     O1        0.136410732159806    0.632891316441488    0.958184507531270  0.0000
  O3     O3        0.776116000094986    0.333061643640320    0.955350675170949  0.0000
  O1     O1        0.773279611309968    0.656995529790430    0.102860839385380  0.0000
  O1     O1        0.262394872088205    0.423995796522506    0.899304895399455  0.0000
  O3     O3        0.271314951409010    0.757847300861312    0.052058710254802  0.0000
