data_c00318.vasp
_audit_creation_method             Generated by GULP
_audit_author_name                 Salvador R. G. Balestra
_symmetry_space_group_name_H-M     'P 1             '
_symmetry_Int_Tables_number        1

loop_
_symmetry_equiv_pos_site_id
_symmetry_equiv_pos_as_xyz
_cell_length_a                       17.7012
_cell_length_b                        7.8632
_cell_length_c                       10.4688
_cell_angle_alpha                   90.3490
_cell_angle_beta                    89.8186
_cell_angle_gamma                   89.5974

loop_
_atom_site_label
_atom_site_type_symbol
_atom_site_fract_x
_atom_site_fract_y
_atom_site_fract_z
_atom_site_charge
  Ge     Ge        0.052090000000021    0.000000000000000    0.372269999999958  0.0000
  Ge     Ge        0.445844502130990    0.019675167003432    0.336114437009760  0.0000
  Ge     Ge        0.953320975117907    0.973369591657097    0.632073404693700  0.0000
  Ge     Ge        0.549255357772603    0.011786708121260    0.590170711039699  0.0000
  Ge     Ge        0.545839240792276    0.017277856826314    0.078246397348434  0.0000
  Ge     Ge        0.941637526500101    0.983326035631607    0.130355320703230  0.0000
  Ge     Ge        0.436667533280771    0.013186630738088    0.830569850579441  0.0000
  Ge     Ge        0.164615664696985    0.293269971852018    0.258229621937962  0.0000
  Ge     Ge        0.325598693439732    0.742080050389564    0.256339821046705  0.0000
  Ge     Ge        0.828617049776030    0.256968114739133    0.703177726563166  0.0000
  Ge     Ge        0.671494761997554    0.728633713005560    0.702202709494450  0.0000
  Ge     Ge        0.851489805500319    0.662305988411094    0.703842249419466  0.0000
  Ge     Ge        0.648180099378211    0.323970467962710    0.700830988713004  0.0000
  Ge     Ge        0.346591176777699    0.331839929463494    0.253423143286259  0.0000
  Ge     Ge        0.643680646992242    0.335164542071405    0.011284788529664  0.0000
  Ge     Ge        0.851335536280442    0.665609290204981    0.015699823985883  0.0000
  Ge     Ge        0.343689090138039    0.334968284150811    0.943277568438042  0.0000
  Ge     Ge        0.157067809322038    0.301511712992269    0.950271277079294  0.0000
  Ge     Ge        0.670928149597988    0.736584591354975    0.012963132079736  0.0000
  Ge     Ge        0.823906188181182    0.261347587357816    0.013004757058745  0.0000
  Si     Si        0.049195930721178    0.006712827430699    0.889623470518827  0.0000
  Si     Si        0.150487485334101    0.693464842669694    0.257577955290221  0.0000
  Si     Si        0.148990606574894    0.693618678358144    0.958077837228008  0.0000
  Si     Si        0.326513861422778    0.733309701828360    0.951617669498614  0.0000
  O1     O1        0.114606640810499    0.162962386714008    0.356524934762292  0.0000
  O1     O1        0.373623244124301    0.875291931068534    0.354170708532261  0.0000
  O1     O1        0.881979416959152    0.120749440320842    0.612021882753124  0.0000
  O1     O1        0.620927026251449    0.868344062821372    0.611191340859612  0.0000
  O1     O1        0.915303399335394    0.774763754557108    0.615259173209397  0.0000
  O1     O1        0.581950804324775    0.213452654656420    0.616119090472484  0.0000
  O3     O3        0.088333778753764    0.801266435884288    0.332080384538357  0.0000
  O1     O1        0.407791718371390    0.220420620761791    0.348278171664006  0.0000
  O1     O1        0.027143415761625    0.000549214361320    0.530824267616790  0.0000
  O1     O1        0.521129606870749    0.993296437896430    0.433154065236737  0.0000
  O1     O1        0.971832346629031    0.021577255622150    0.283146342012303  0.0000
  O1     O1        0.474224141557277    0.980250675988666    0.180920785750632  0.0000
  O3     O3        0.982545780938084    0.996363219654206    0.789748035196004  0.0000
  O1     O1        0.468433595745089    0.977158298355515    0.678080534368246  0.0000
  O1     O1        0.578892444121602    0.221567183227240    0.096393345899643  0.0000
  O1     O1        0.915302029260106    0.776267316416840    0.105565542201579  0.0000
  O1     O1        0.400375057240645    0.216086228931545    0.845220694032117  0.0000
  O2     O2        0.096891464063095    0.829203847825331    0.886028290488778  0.0000
  O3     O3        0.363439565749401    0.875002837351615    0.864642347247560  0.0000
  O3     O3        0.105449226825525    0.161313855871635    0.858305942105848  0.0000
  O1     O1        0.620896954942773    0.880255529513360    0.101488921612505  0.0000
  O1     O1        0.864897913066821    0.113243300718953    0.108481791522872  0.0000
  O1     O1        0.514150300613790    0.984407838938016    0.924600619370005  0.0000
  O3     O3        0.015195848754969    0.038363049665122    0.029825210011133  0.0000
  O3     O3        0.156910320360142    0.503764367633515    0.310637189221830  0.0000
  O1     O1        0.342631706443066    0.537439321852680    0.304508817876557  0.0000
  O1     O1        0.840535514159388    0.460904948780509    0.646269210797471  0.0000
  O1     O1        0.660105876755386    0.525222771362301    0.642830973363652  0.0000
  O1     O1        0.258393461573689    0.240882948116466    0.259636074970348  0.0000
  O3     O3        0.230192790108116    0.788523951869525    0.269083034104275  0.0000
  O1     O1        0.733333147783270    0.215536146168755    0.697135590469431  0.0000
  O1     O1        0.766377479139215    0.771253547802450    0.700929769200686  0.0000
  O1     O1        0.130701101410147    0.274405228709200    0.106267815009151  0.0000
  O3     O3        0.352980887361001    0.755990634030500    0.097302575862591  0.0000
  O1     O1        0.858004754398976    0.247417184457159    0.859435754465555  0.0000
  O1     O1        0.640186332959681    0.740789737436732    0.857040287167802  0.0000
  O1     O1        0.881206308468910    0.652725211607908    0.859984820574923  0.0000
  O1     O1        0.614960155143424    0.342471802366912    0.854453907691632  0.0000
  O2     O2        0.126870167554183    0.681730131120687    0.107782540348804  0.0000
  O1     O1        0.376291921724212    0.314576587112330    0.096708124109607  0.0000
  O1     O1        0.654543479116711    0.534741949666987    0.071857558766363  0.0000
  O1     O1        0.839903158007869    0.463607537754688    0.072086590400580  0.0000
  O3     O3        0.349407526244367    0.547166846954132    0.900443082475393  0.0000
  O3     O3        0.138209827515163    0.508102395644726    0.898700284017978  0.0000
  O1     O1        0.728575395384638    0.227154387341380    0.009149628905410  0.0000
  O1     O1        0.765913692198766    0.773161620937079    0.018204976157321  0.0000
  O1     O1        0.251945668988598    0.266451272569431    0.935136811887101  0.0000
  O2     O2        0.235627785076477    0.751931453153035    0.947289236386878  0.0000
