data_c00394.vasp
_audit_creation_method             Generated by GULP
_audit_author_name                 Salvador R. G. Balestra
_symmetry_space_group_name_H-M     'P 1             '
_symmetry_Int_Tables_number        1

loop_
_symmetry_equiv_pos_site_id
_symmetry_equiv_pos_as_xyz
_cell_length_a                       17.6227
_cell_length_b                        7.8144
_cell_length_c                       10.2830
_cell_angle_alpha                   89.4575
_cell_angle_beta                    90.2543
_cell_angle_gamma                   88.6321

loop_
_atom_site_label
_atom_site_type_symbol
_atom_site_fract_x
_atom_site_fract_y
_atom_site_fract_z
_atom_site_charge
  Ge     Ge        0.052090000000021    0.000000000000000    0.372269999999958  0.0000
  Ge     Ge        0.449974605314077    0.943093585022168    0.397755644685958  0.0000
  Ge     Ge        0.945435564070031    0.954974995829530    0.623868241283645  0.0000
  Ge     Ge        0.549619096024797    0.006510778153176    0.654768279140701  0.0000
  Ge     Ge        0.556789183957436    0.999188294457183    0.154052002200623  0.0000
  Ge     Ge        0.953212327069174    0.944326131469004    0.109311719687578  0.0000
  Ge     Ge        0.445519208503484    0.945562203456605    0.909953097540829  0.0000
  Ge     Ge        0.147062385660393    0.314867536401027    0.292014225878698  0.0000
  Ge     Ge        0.353392450451670    0.635872059300820    0.280553840582526  0.0000
  Ge     Ge        0.827901297019789    0.250987672504006    0.726491945785373  0.0000
  Ge     Ge        0.675918129863219    0.725800238413428    0.728794701412189  0.0000
  Ge     Ge        0.645510149119950    0.324667637118662    0.720612155916645  0.0000
  Ge     Ge        0.174744209930360    0.719533839819638    0.290488949891995  0.0000
  Ge     Ge        0.326997023547084    0.231337990578822    0.283977934079035  0.0000
  Ge     Ge        0.646998263533204    0.317290695611872    0.034550091413292  0.0000
  Ge     Ge        0.849483895337866    0.634775143368989    0.047835398689857  0.0000
  Ge     Ge        0.325659172512073    0.242427569603769    0.970377737254978  0.0000
  Ge     Ge        0.168726961337562    0.717565165507852    0.973965399020798  0.0000
  Ge     Ge        0.143161889452764    0.314210938823473    0.976105455330607  0.0000
  Ge     Ge        0.828227894417188    0.233360443833360    0.039510526077738  0.0000
  Si     Si        0.054144306321023    0.004971037486269    0.860829995605465  0.0000
  Si     Si        0.851449633597392    0.645973258914933    0.735858451917462  0.0000
  Si     Si        0.345957947023420    0.636626804769375    0.970152638322252  0.0000
  Si     Si        0.674375723702387    0.715276123641121    0.039736885981756  0.0000
  O1     O1        0.084764808468874    0.204058092746900    0.387210555084901  0.0000
  O1     O1        0.424219976428953    0.739126402487171    0.358927697141651  0.0000
  O1     O1        0.876104659722144    0.110442428298002    0.628666612623585  0.0000
  O1     O1        0.629290176408657    0.875337960084102    0.637105240039916  0.0000
  O3     O3        0.915105636409898    0.752742857892640    0.662900897204219  0.0000
  O1     O1        0.580386961196151    0.211579329926121    0.633314373875630  0.0000
  O1     O1        0.126854258564906    0.856241574305152    0.390824883469913  0.0000
  O1     O1        0.374856048581222    0.083251570870853    0.377689771904927  0.0000
  O1     O1        0.976169737291004    0.952323110051090    0.465078909231598  0.0000
  O1     O1        0.475246046119092    0.953007813423173    0.559813017012265  0.0000
  O1     O1        0.026182357115109    0.981933874846410    0.209752503239019  0.0000
  O1     O1        0.530578833111217    0.994310863495746    0.314584270451473  0.0000
  O3     O3        0.026081420122941    0.002343794614590    0.712315377559862  0.0000
  O1     O1        0.522236144126994    0.972626172127197    0.814178387002782  0.0000
  O1     O1        0.584026543089152    0.205707345103399    0.125405484220392  0.0000
  O1     O1        0.916049574363019    0.743568980139672    0.130598711103288  0.0000
  O1     O1        0.377689142843704    0.103630819760192    0.877764502673118  0.0000
  O3     O3        0.126666839221352    0.878034075557106    0.881156519021898  0.0000
  O3     O3        0.404681368283354    0.746917053965924    0.888638430719056  0.0000
  O3     O3        0.076661191866169    0.198044119679482    0.893750162230034  0.0000
  O3     O3        0.629853111553530    0.852925796400709    0.125912561105343  0.0000
  O1     O1        0.878858130986923    0.087613718519085    0.130513099682054  0.0000
  O1     O1        0.476546518232907    0.951727125999038    0.068815377283246  0.0000
  O3     O3        0.984364416237953    0.946523551719174    0.949107589427182  0.0000
  O1     O1        0.162101784171153    0.514243553533035    0.349725148014308  0.0000
  O1     O1        0.342284054046522    0.434269638017622    0.342491930273769  0.0000
  O3     O3        0.841054065538986    0.460708208838398    0.672814188366395  0.0000
  O1     O1        0.655020456137305    0.528849647165796    0.665226117525526  0.0000
  O1     O1        0.231324196588886    0.197663067307657    0.285627192623258  0.0000
  O1     O1        0.270384245172125    0.755426276036769    0.292230352223629  0.0000
  O1     O1        0.732305537551146    0.217746390918988    0.720425245213120  0.0000
  O3     O3        0.772731440623627    0.755777433125159    0.725462853516203  0.0000
  O1     O1        0.114370794023446    0.333489544172064    0.134224448798155  0.0000
  O3     O3        0.375023788187067    0.609156010007251    0.117836976879555  0.0000
  O1     O1        0.860620668510329    0.218598172781205    0.881898014704197  0.0000
  O3     O3        0.647227550000837    0.729332017552808    0.890271045180531  0.0000
  O3     O3        0.873683120852701    0.613317961608305    0.885225683821511  0.0000
  O1     O1        0.613586315447440    0.328513559001492    0.878621668333472  0.0000
  O1     O1        0.140447952166106    0.733394109311128    0.132847639629739  0.0000
  O1     O1        0.358925683847240    0.216137718798288    0.126793444190294  0.0000
  O3     O3        0.659693063780714    0.522810081137192    0.091491313159823  0.0000
  O1     O1        0.843020431729574    0.432090501020163    0.106217558716760  0.0000
  O3     O3        0.336051941981841    0.450199536286553    0.910323224799459  0.0000
  O1     O1        0.148068726848029    0.519043206121373    0.914425519841242  0.0000
  O1     O1        0.732336015518478    0.205536049705466    0.037686888792750  0.0000
  O3     O3        0.763695768408741    0.748755453024609    0.050796596207685  0.0000
  O1     O1        0.229914921485141    0.209292951254773    0.968534177436191  0.0000
  O3     O3        0.266037449399165    0.741739881853305    0.973084017658881  0.0000
