data_c00333.vasp
_audit_creation_method             Generated by GULP
_audit_author_name                 Salvador R. G. Balestra
_symmetry_space_group_name_H-M     'P 1             '
_symmetry_Int_Tables_number        1

loop_
_symmetry_equiv_pos_site_id
_symmetry_equiv_pos_as_xyz
_cell_length_a                       17.5496
_cell_length_b                        7.8123
_cell_length_c                       10.3275
_cell_angle_alpha                   90.2229
_cell_angle_beta                    89.7942
_cell_angle_gamma                   88.5494

loop_
_atom_site_label
_atom_site_type_symbol
_atom_site_fract_x
_atom_site_fract_y
_atom_site_fract_z
_atom_site_charge
  Ge     Ge        0.052090000000021    0.000000000000000    0.372269999999958  0.0000
  Ge     Ge        0.443780674548009    0.953979658002090    0.367405960651378  0.0000
  Ge     Ge        0.951494527664984    0.932247441549936    0.626357415936475  0.0000
  Ge     Ge        0.545744569210087    0.987508399126574    0.624781110557707  0.0000
  Ge     Ge        0.552642560185252    0.993526255700000    0.124179824433516  0.0000
  Ge     Ge        0.941273040328735    0.929539052722604    0.129994584508323  0.0000
  Ge     Ge        0.441584199264254    0.935410308220304    0.881933515949160  0.0000
  Ge     Ge        0.139657576562294    0.321953550568830    0.259945222547590  0.0000
  Ge     Ge        0.347558527482026    0.640122124656080    0.249224691920749  0.0000
  Ge     Ge        0.824878963824598    0.215241722201062    0.695659634940545  0.0000
  Ge     Ge        0.671102478576548    0.706964566664952    0.700176259642018  0.0000
  Ge     Ge        0.851878131371001    0.619861247896139    0.700814751745846  0.0000
  Ge     Ge        0.645729196334735    0.301718261433675    0.692489671776686  0.0000
  Ge     Ge        0.322746088352555    0.240225688937472    0.259411471587685  0.0000
  Ge     Ge        0.851822847230032    0.613027757206195    0.015688224262682  0.0000
  Ge     Ge        0.321868261269252    0.235355774304621    0.947815338522823  0.0000
  Ge     Ge        0.163875881473196    0.708674170803921    0.947852534501356  0.0000
  Ge     Ge        0.138674801703278    0.307821021001721    0.948340024271717  0.0000
  Ge     Ge        0.669617891572686    0.695998655191075    0.013060757287623  0.0000
  Ge     Ge        0.820991042687393    0.212172208315482    0.011499320872642  0.0000
  Si     Si        0.043832130617331    0.997929678522638    0.883046413914293  0.0000
  Si     Si        0.170159915839716    0.715296826064063    0.257072486441936  0.0000
  Si     Si        0.644005823799824    0.299541312518166    0.001884165367616  0.0000
  Si     Si        0.340098496266954    0.629615855654785    0.938328653825719  0.0000
  O1     O1        0.077095573092520    0.209004578802440    0.352425513723669  0.0000
  O1     O1        0.417818398998644    0.752197987684697    0.319645809344851  0.0000
  O1     O1        0.878117500959702    0.078155335524946    0.600809043210814  0.0000
  O1     O1        0.621969968480069    0.846907471718192    0.603009549585741  0.0000
  O1     O1        0.917182829743375    0.729966135102448    0.611655048512839  0.0000
  O1     O1        0.577518516861085    0.193277476502572    0.610359132594343  0.0000
  O3     O3        0.128521000317001    0.864969652930105    0.337070047344279  0.0000
  O1     O1        0.367195284139757    0.091757039961426    0.355839899379679  0.0000
  O1     O1        0.028537346680773    0.968777857893223    0.532185093519278  0.0000
  O1     O1        0.470507948818433    0.947439795171681    0.527670364065036  0.0000
  O1     O1        0.972013620792001    0.951108529396964    0.286242539270007  0.0000
  O1     O1        0.522808078223041    0.014193764966391    0.282460128463005  0.0000
  O3     O3        0.975513024127665    0.956715229487777    0.789452274449595  0.0000
  O1     O1        0.517649679783762    0.958594033325442    0.783567493075973  0.0000
  O3     O3        0.580496591076140    0.194853437920259    0.076225211023965  0.0000
  O1     O1        0.918039701013679    0.720585287552389    0.103661004075641  0.0000
  O1     O1        0.373602377695187    0.094186132438642    0.854582664014314  0.0000
  O3     O3        0.113420598486322    0.860407501574552    0.862756219919648  0.0000
  O3     O3        0.400687309461666    0.736177266892149    0.859027166017647  0.0000
  O3     O3        0.076081140642786    0.186286900115436    0.859355389825154  0.0000
  O1     O1        0.623281657433647    0.838415112448010    0.113894685692703  0.0000
  O1     O1        0.861244434976357    0.056148063628129    0.105353031335407  0.0000
  O1     O1        0.473371495617762    0.937767850771792    0.039141537668974  0.0000
  O3     O3        0.015765556553808    0.990090109298539    0.031750989065906  0.0000
  O3     O3        0.152414030754775    0.529054577241794    0.316312222097345  0.0000
  O1     O1        0.342446562571218    0.441659150749296    0.316613146941157  0.0000
  O1     O1        0.837789015739471    0.420797071115782    0.639432547519694  0.0000
  O1     O1        0.657780991536654    0.503828267800491    0.637361508594865  0.0000
  O1     O1        0.226276316468266    0.215493795974706    0.260552556489196  0.0000
  O3     O3        0.259987018420629    0.748063196566312    0.261372789092920  0.0000
  O1     O1        0.728988267539169    0.180080906914141    0.685321514863954  0.0000
  O1     O1        0.767414928715799    0.739030235017713    0.702430964315150  0.0000
  O1     O1        0.106043709283279    0.327851920257025    0.104870760512438  0.0000
  O3     O3        0.365694972594098    0.604884626231329    0.086933054510386  0.0000
  O1     O1        0.853136238568408    0.198090139356029    0.854735026010724  0.0000
  O1     O1        0.638211828779510    0.725196924705099    0.857636128109920  0.0000
  O1     O1        0.882284919890254    0.597709303259554    0.857847511731030  0.0000
  O3     O3        0.619313251463877    0.325715325705062    0.853861464215957  0.0000
  O3     O3        0.139314538351100    0.715822292145879    0.110268147465367  0.0000
  O1     O1        0.355634408975869    0.213594045007424    0.103126702289317  0.0000
  O3     O3        0.654606512574585    0.486364698748265    0.063614151489168  0.0000
  O1     O1        0.842017091269991    0.409857036166928    0.074142858887110  0.0000
  O3     O3        0.330406568683478    0.440196325218350    0.882705560204011  0.0000
  O1     O1        0.144026115027680    0.509648621077990    0.886353123697261  0.0000
  O3     O3        0.723035924395103    0.189809052073026    0.007955774886436  0.0000
  O1     O1        0.765932279373640    0.724530953871900    0.019239622546659  0.0000
  O1     O1        0.225746639023017    0.201713862095920    0.949704007563462  0.0000
  O3     O3        0.260522875622391    0.738813830348689    0.935215583197732  0.0000
