data_c00493.vasp
_audit_creation_method             Generated by GULP
_audit_author_name                 Salvador R. G. Balestra
_symmetry_space_group_name_H-M     'P 1             '
_symmetry_Int_Tables_number        1

loop_
_symmetry_equiv_pos_site_id
_symmetry_equiv_pos_as_xyz
_cell_length_a                       17.8517
_cell_length_b                        7.8797
_cell_length_c                       10.3168
_cell_angle_alpha                   91.3340
_cell_angle_beta                    89.6412
_cell_angle_gamma                   89.8432

loop_
_atom_site_label
_atom_site_type_symbol
_atom_site_fract_x
_atom_site_fract_y
_atom_site_fract_z
_atom_site_charge
  Ge     Ge        0.052090000000021    0.000000000000000    0.372269999999958  0.0000
  Ge     Ge        0.446099627518357    0.027757301240795    0.367773306836589  0.0000
  Ge     Ge        0.949122279908883    0.986558961006942    0.631535347142606  0.0000
  Ge     Ge        0.554516830490857    0.008541707431770    0.615094285961103  0.0000
  Ge     Ge        0.549023262603038    0.029494232573783    0.111114127112717  0.0000
  Ge     Ge        0.948113002793242    0.011652996117725    0.112951258892378  0.0000
  Ge     Ge        0.442819065145192    0.022272424437374    0.860340484703208  0.0000
  Ge     Ge        0.165913336412842    0.291947938533769    0.297268491146768  0.0000
  Ge     Ge        0.326600836002278    0.743166931857716    0.296963615629352  0.0000
  Ge     Ge        0.670771444975721    0.721884332919554    0.727239400165541  0.0000
  Ge     Ge        0.850022155248183    0.676449722375962    0.734290938092828  0.0000
  Ge     Ge        0.658380923601958    0.317382208028184    0.735028388280329  0.0000
  Ge     Ge        0.346172562977172    0.339783409253129    0.295636681778289  0.0000
  Ge     Ge        0.651994764422427    0.341322689737797    0.053942476372890  0.0000
  Ge     Ge        0.345746831209528    0.336364353319832    0.979744934971879  0.0000
  Ge     Ge        0.145608388950445    0.690309336440528    0.989711641449318  0.0000
  Ge     Ge        0.324836118534490    0.743014745254968    0.981944349598843  0.0000
  Ge     Ge        0.164923770737396    0.283893673414788    0.984187789977231  0.0000
  Ge     Ge        0.669755503418109    0.743742859533177    0.042025536333413  0.0000
  Ge     Ge        0.831683208214581    0.303499235598912    0.054024912952743  0.0000
  Si     Si        0.054197296549092    0.998141026601522    0.872204769317103  0.0000
  Si     Si        0.834033897303237    0.276780819089995    0.744415012983588  0.0000
  Si     Si        0.150979045917514    0.689581848667311    0.298378739967933  0.0000
  Si     Si        0.847097389753031    0.701030170234491    0.040294818276884  0.0000
  O1     O1        0.115320087933181    0.162629737339724    0.395212779057892  0.0000
  O1     O1        0.375674631159316    0.882379156133066    0.392126116873893  0.0000
  O3     O3        0.882676192041669    0.140659566339948    0.663815182930614  0.0000
  O1     O1        0.618024968513571    0.848588662616613    0.631446675731200  0.0000
  O1     O1        0.912415956733384    0.786784850669108    0.643483722361693  0.0000
  O1     O1        0.597126942467361    0.199258617002026    0.645906376789320  0.0000
  O3     O3        0.095912368519737    0.804195650683792    0.386795242863595  0.0000
  O1     O1        0.407084954176122    0.225942256513690    0.387451009029735  0.0000
  O1     O1        0.977263934020592    0.015237342112127    0.474235712993810  0.0000
  O1     O1        0.524770908761233    0.002007090932913    0.456400960598198  0.0000
  O1     O1        0.021491586332184    0.016044977962318    0.215155344400864  0.0000
  O1     O1        0.473490636320780    0.998817597276080    0.207369030156481  0.0000
  O3     O3        0.029711049344047    0.001324981976240    0.723097655026728  0.0000
  O1     O1        0.473196088905984    0.992032134190444    0.703413246441968  0.0000
  O1     O1        0.585879068760506    0.229244188090207    0.135920017368115  0.0000
  O3     O3        0.900683249366105    0.820759940004887    0.125245208237233  0.0000
  O1     O1        0.408714531724473    0.224711322899068    0.886132286376951  0.0000
  O3     O3        0.079796897362373    0.809699600170673    0.911951234102129  0.0000
  O1     O1        0.371751460763700    0.881529097227927    0.887332946504534  0.0000
  O3     O3        0.120668356035786    0.132432101974414    0.889478442187638  0.0000
  O1     O1        0.622782511779346    0.890755254761968    0.133524418960118  0.0000
  O1     O1        0.886280056624362    0.176273830686556    0.145008926083622  0.0000
  O1     O1        0.520293159297656    0.992229501381418    0.953993498573760  0.0000
  O3     O3        0.981479181697218    0.046734798482295    0.957748134443563  0.0000
  O3     O3        0.158850208362363    0.502164549072214    0.353233942545443  0.0000
  O1     O1        0.340940089903713    0.543251770047968    0.354869779945570  0.0000
  O3     O3        0.844594434728335    0.464708860142248    0.687174303582180  0.0000
  O1     O1        0.661758410004498    0.515474465880535    0.672565276961612  0.0000
  O1     O1        0.259534944653353    0.243363206432621    0.297284418106414  0.0000
  O3     O3        0.231326523127539    0.783305931278419    0.295242968754522  0.0000
  O3     O3        0.747001307750034    0.225889096641459    0.734892373263714  0.0000
  O1     O1        0.764086952140665    0.770971427922480    0.719507677506409  0.0000
  O1     O1        0.133493941464709    0.272498901646513    0.141083180543147  0.0000
  O1     O1        0.356654514017818    0.753809781746287    0.138544178912838  0.0000
  O3     O3        0.858759848522543    0.280838591816698    0.893256312282892  0.0000
  O1     O1        0.639041562061112    0.741567057074364    0.884148593535919  0.0000
  O3     O3        0.879028207447517    0.689542924664204    0.894124994723474  0.0000
  O1     O1        0.627758174448064    0.329536848833868    0.892506783570148  0.0000
  O3     O3        0.120665478523734    0.674953606293915    0.151637236075197  0.0000
  O1     O1        0.377229357799575    0.340798847940981    0.137131068045435  0.0000
  O1     O1        0.653986096657396    0.547796895411134    0.106799989708822  0.0000
  O3     O3        0.841752415362379    0.515696350220372    0.100457106994110  0.0000
  O1     O1        0.337718376920572    0.538197900427823    0.923974828029799  0.0000
  O1     O1        0.149317305405325    0.485885187491590    0.928637488175649  0.0000
  O1     O1        0.739423351476912    0.251809762914928    0.070769729613103  0.0000
  O3     O3        0.764724012160200    0.784704222059610    0.035635614481030  0.0000
  O1     O1        0.259031301564693    0.241748582099244    0.978994516305925  0.0000
  O1     O1        0.230723786830943    0.787511611703646    0.977561040192743  0.0000
