data_c00479.vasp
_audit_creation_method             Generated by GULP
_audit_author_name                 Salvador R. G. Balestra
_symmetry_space_group_name_H-M     'P 1             '
_symmetry_Int_Tables_number        1

loop_
_symmetry_equiv_pos_site_id
_symmetry_equiv_pos_as_xyz
_cell_length_a                       17.7249
_cell_length_b                        7.8030
_cell_length_c                       10.1102
_cell_angle_alpha                   90.6086
_cell_angle_beta                    90.4883
_cell_angle_gamma                   90.9545

loop_
_atom_site_label
_atom_site_type_symbol
_atom_site_fract_x
_atom_site_fract_y
_atom_site_fract_z
_atom_site_charge
  Ge     Ge        0.052090000000021    0.000000000000000    0.372269999999958  0.0000
  Ge     Ge        0.447510868692622    0.043859275154547    0.359398464429093  0.0000
  Ge     Ge        0.947527863638107    0.036686911741368    0.626288691750949  0.0000
  Ge     Ge        0.555836089643335    0.978310689446606    0.608607238098249  0.0000
  Ge     Ge        0.553986575790082    0.981454615898810    0.110729487878093  0.0000
  Ge     Ge        0.955110979764402    0.046263927121352    0.101028205569778  0.0000
  Ge     Ge        0.448933198120698    0.033069039195916    0.857903417781861  0.0000
  Ge     Ge        0.175393374045986    0.276485276394564    0.296726025493071  0.0000
  Ge     Ge        0.327567075431119    0.751009220866417    0.294075844140647  0.0000
  Ge     Ge        0.649506921895226    0.664675287285565    0.725519093625464  0.0000
  Ge     Ge        0.831446499952316    0.739134641234949    0.725333759615438  0.0000
  Ge     Ge        0.679852324448490    0.261335237671350    0.724042361162079  0.0000
  Ge     Ge        0.147084609598018    0.679118630315895    0.297158904031938  0.0000
  Ge     Ge        0.680143258346456    0.266865051724949    0.051634493375888  0.0000
  Ge     Ge        0.834202081074673    0.749286183526670    0.042837516260094  0.0000
  Ge     Ge        0.353819775552971    0.344861865273857    0.979407712193662  0.0000
  Ge     Ge        0.148234931819271    0.670470303676652    0.976007215142754  0.0000
  Ge     Ge        0.328577728597987    0.749863612509534    0.974738838061312  0.0000
  Ge     Ge        0.175298624328791    0.263891640050994    0.973168158729167  0.0000
  Ge     Ge        0.654589052989037    0.670292164954968    0.048892944683302  0.0000
  Si     Si        0.059542659240622    0.977242674754410    0.855176032662877  0.0000
  Si     Si        0.851488468578044    0.346239203766411    0.733079853650788  0.0000
  Si     Si        0.350244480910031    0.355191019145279    0.296180939284947  0.0000
  Si     Si        0.850619796521036    0.355171496079626    0.048766079695999  0.0000
  O1     O1        0.129462792565239    0.134758167959621    0.395105449578836  0.0000
  O1     O1        0.379436473119529    0.890729511870495    0.391220060206959  0.0000
  O3     O3        0.921165901789966    0.236923231105480    0.684183460069389  0.0000
  O1     O1        0.581739802226865    0.771184839033674    0.638275126421313  0.0000
  O1     O1        0.878214749414705    0.883595740614557    0.627478109103848  0.0000
  O1     O1        0.634709747614564    0.103330505482306    0.636517276636536  0.0000
  O1     O1        0.083212857853626    0.793833321875670    0.387030496860675  0.0000
  O3     O3        0.410715961818472    0.247655050557043    0.378703586877065  0.0000
  O1     O1        0.975840123609331    0.051548113886415    0.463932974206320  0.0000
  O1     O1        0.528078622572711    0.007908457577557    0.446836904686375  0.0000
  O1     O1        0.028047863710262    0.030200025843699    0.207507240461137  0.0000
  O1     O1        0.474818431925626    0.026929496656808    0.195879664531697  0.0000
  O3     O3        0.031330087682802    0.982109809841841    0.704010516351875  0.0000
  O1     O1        0.477327425231945    0.035991256033545    0.695851052568899  0.0000
  O1     O1        0.626478224587270    0.127847055725854    0.139532117087597  0.0000
  O1     O1        0.886878820801954    0.894237121436106    0.134132359039794  0.0000
  O1     O1        0.424323476866523    0.238242277666311    0.903147801042843  0.0000
  O3     O3        0.083231045718569    0.784019634270935    0.885981671252342  0.0000
  O1     O1        0.373705208182036    0.894850291409961    0.876272466032495  0.0000
  O3     O3        0.129440879936994    0.107499044290174    0.880099471232770  0.0000
  O1     O1        0.591351033863782    0.783389731403221    0.140187949195645  0.0000
  O3     O3        0.920074261066061    0.254215661615617    0.106463205088388  0.0000
  O1     O1        0.527424306105749    0.976882619212885    0.945766465337292  0.0000
  O3     O3        0.987217328068917    0.029380223871986    0.940451093209857  0.0000
  O1     O1        0.157957579849973    0.478648084335580    0.358267551701573  0.0000
  O3     O3        0.339233817252535    0.544002502949376    0.354999123257086  0.0000
  O3     O3        0.849215724260577    0.531884122269187    0.667205125909069  0.0000
  O1     O1        0.657065029710283    0.459283658715040    0.665036384346375  0.0000
  O3     O3        0.272018693926384    0.246091229394286    0.296366758468585  0.0000
  O1     O1        0.232938487992978    0.788923833422926    0.296700220196068  0.0000
  O3     O3        0.776223680238611    0.234540357542199    0.703293060097494  0.0000
  O1     O1        0.736048984868630    0.768695887784994    0.717652848753579  0.0000
  O1     O1        0.146171702478501    0.258744434669573    0.134029446825530  0.0000
  O1     O1        0.360548352678170    0.771738972970940    0.135289348830608  0.0000
  O2     O2        0.852285829399370    0.391651802603519    0.890273708721909  0.0000
  O1     O1        0.623670947324606    0.649041634801370    0.887707105026132  0.0000
  O1     O1        0.864262358240433    0.776036778750266    0.882940405963249  0.0000
  O1     O1        0.655607015612796    0.244167138065407    0.887465123929235  0.0000
  O1     O1        0.116718999972072    0.659155108443479    0.135396654993683  0.0000
  O3     O3        0.376093925214805    0.377012790415123    0.145051101302406  0.0000
  O1     O1        0.664294300832149    0.470487894395353    0.110930238801330  0.0000
  O3     O3        0.847177763043323    0.545304053067253    0.108771836153853  0.0000
  O1     O1        0.344560858039486    0.545741299307746    0.915672714417930  0.0000
  O1     O1        0.158249669057764    0.466848992077857    0.914044157768805  0.0000
  O3     O3        0.776358590908889    0.238036152889994    0.073072309517055  0.0000
  O1     O1        0.739270969928176    0.784089232047923    0.047293784179397  0.0000
  O1     O1        0.270541278497299    0.229772777093423    0.964047492935284  0.0000
  O1     O1        0.233073734621791    0.779865104480700    0.975255859498914  0.0000
