data_c00415.vasp
_audit_creation_method             Generated by GULP
_audit_author_name                 Salvador R. G. Balestra
_symmetry_space_group_name_H-M     'P 1             '
_symmetry_Int_Tables_number        1

loop_
_symmetry_equiv_pos_site_id
_symmetry_equiv_pos_as_xyz
_cell_length_a                       17.8093
_cell_length_b                        7.8201
_cell_length_c                       10.5177
_cell_angle_alpha                   88.1544
_cell_angle_beta                    90.2924
_cell_angle_gamma                   90.2389

loop_
_atom_site_label
_atom_site_type_symbol
_atom_site_fract_x
_atom_site_fract_y
_atom_site_fract_z
_atom_site_charge
  Ge     Ge        0.052090000000021    0.000000000000000    0.372269999999958  0.0000
  Ge     Ge        0.452051428752472    0.040357951025303    0.391955000677810  0.0000
  Ge     Ge        0.950537546495444    0.011585336171500    0.630782915488862  0.0000
  Ge     Ge        0.552450086783798    0.045443043857051    0.650011162610718  0.0000
  Ge     Ge        0.558359003875699    0.026559157570028    0.145844235837168  0.0000
  Ge     Ge        0.952925589201383    0.998522886257133    0.110151192688595  0.0000
  Ge     Ge        0.447629958742643    0.048685124286557    0.902855634050188  0.0000
  Ge     Ge        0.172272285275329    0.283231816348908    0.287157758425119  0.0000
  Ge     Ge        0.329331378976085    0.759034332388134    0.281627137282937  0.0000
  Ge     Ge        0.833402211254347    0.301847019654975    0.729464075342732  0.0000
  Ge     Ge        0.674603614975559    0.763875584857606    0.728329962076027  0.0000
  Ge     Ge        0.654787240518451    0.355434272956972    0.721943260929909  0.0000
  Ge     Ge        0.152037318461164    0.694363219064960    0.288398377426538  0.0000
  Ge     Ge        0.350261945512854    0.350415042389759    0.280919388478141  0.0000
  Ge     Ge        0.852170526248897    0.682299927851048    0.042249857754099  0.0000
  Ge     Ge        0.347977617099133    0.364095614148352    0.969323746660262  0.0000
  Ge     Ge        0.325865209800927    0.766289541410343    0.973164080133508  0.0000
  Ge     Ge        0.166515271408457    0.309240071682925    0.978668376440523  0.0000
  Ge     Ge        0.673799247892760    0.741270110989081    0.036230633907854  0.0000
  Ge     Ge        0.829815232953348    0.277492487000546    0.037575268318822  0.0000
  Si     Si        0.057239347852527    0.023178868183085    0.870095923708569  0.0000
  Si     Si        0.849514109063857    0.702564808561548    0.737425192631370  0.0000
  Si     Si        0.654461662636048    0.336845276650732    0.025816332387255  0.0000
  Si     Si        0.148378711231171    0.711304339080317    0.986875805270809  0.0000
  O1     O1        0.123364770187933    0.147664097740046    0.386841739298569  0.0000
  O1     O1        0.382262874149062    0.893014625154828    0.370182596368196  0.0000
  O1     O1        0.888855467189811    0.177436311693686    0.638451212132285  0.0000
  O1     O1        0.626330262948881    0.905925929811952    0.633723699421813  0.0000
  O3     O3        0.909291946897492    0.814494493608086    0.658512147514406  0.0000
  O1     O1        0.589234724843387    0.248607350169433    0.635623885989173  0.0000
  O1     O1        0.088767824747269    0.797278446902076    0.380057789670200  0.0000
  O1     O1        0.417339361262066    0.242533584845227    0.367185486030881  0.0000
  O1     O1        0.980611045168359    0.019693553438344    0.475900701713207  0.0000
  O1     O1        0.479978475458538    0.015571519766861    0.548465789971950  0.0000
  O1     O1        0.019481567609084    0.039569656547804    0.218965926541332  0.0000
  O1     O1        0.530757891996576    0.014962099933613    0.301729763624884  0.0000
  O3     O3        0.029980499595533    0.027859977031702    0.724847865648807  0.0000
  O1     O1        0.519094919708146    0.010723712516690    0.802542898247047  0.0000
  O3     O3        0.595183073614868    0.227237193319987    0.107563625040481  0.0000
  O1     O1        0.920022378761351    0.791708621421663    0.121311694237934  0.0000
  O1     O1        0.411982801308080    0.251963924604810    0.884773203452167  0.0000
  O2     O2        0.092144239496599    0.837031879205485    0.908334349323828  0.0000
  O1     O1        0.370592462360335    0.916243362204723    0.881641493977726  0.0000
  O3     O3        0.117527255343309    0.174835456901848    0.881759480550646  0.0000
  O1     O1        0.622182498437416    0.864721920617326    0.132994842585948  0.0000
  O1     O1        0.875168526476649    0.127527213272978    0.128120513675760  0.0000
  O1     O1        0.479466212554774    0.002437072126759    0.055099670460913  0.0000
  O3     O3        0.985859035274870    0.051789417337525    0.958544147356162  0.0000
  O1     O1        0.162964317207154    0.488579047401124    0.340851158134874  0.0000
  O1     O1        0.338903422431867    0.550408787052357    0.338023448968473  0.0000
  O3     O3        0.840046966048363    0.516420898886258    0.679887388716177  0.0000
  O1     O1        0.659689262635842    0.563395752126959    0.670372623422413  0.0000
  O1     O1        0.266434898342967    0.238711711678318    0.286655504713871  0.0000
  O1     O1        0.235451037966866    0.806110275072015    0.290641069857666  0.0000
  O1     O1        0.739794608549659    0.253196604898129    0.713048383407238  0.0000
  O3     O3        0.770373046521124    0.802879544674129    0.732160424266137  0.0000
  O1     O1        0.138921798444161    0.277406966752634    0.132936957915069  0.0000
  O1     O1        0.359017011851918    0.770234715347436    0.126981672519494  0.0000
  O1     O1        0.861603771831912    0.272828811584558    0.883586306956070  0.0000
  O1     O1        0.643809647405475    0.775726325876739    0.882623833257940  0.0000
  O3     O3        0.876247433744747    0.679241928724522    0.882601924179029  0.0000
  O3     O3        0.626504550949432    0.350853365080279    0.880335652329576  0.0000
  O3     O3        0.119836822167387    0.695789647099109    0.131305727956323  0.0000
  O1     O1        0.378163887538183    0.363691811864913    0.124900897544000  0.0000
  O3     O3        0.663852089345724    0.525238246925435    0.079256120344390  0.0000
  O1     O1        0.846399307188762    0.476164535488138    0.098657793221974  0.0000
  O1     O1        0.342007109035398    0.569386605631449    0.910681553954532  0.0000
  O3     O3        0.151460475746172    0.522986377979668    0.930919420427448  0.0000
  O3     O3        0.734039601706121    0.239427128111831    0.031551685485397  0.0000
  O1     O1        0.767504056944234    0.785777343431332    0.052190593761311  0.0000
  O1     O1        0.260393534914573    0.269117849335649    0.966363245682923  0.0000
  O3     O3        0.230120647580164    0.798388946576516    0.983095633591277  0.0000
