data_c00432.vasp
_audit_creation_method             Generated by GULP
_audit_author_name                 Salvador R. G. Balestra
_symmetry_space_group_name_H-M     'P 1             '
_symmetry_Int_Tables_number        1

loop_
_symmetry_equiv_pos_site_id
_symmetry_equiv_pos_as_xyz
_cell_length_a                       17.8427
_cell_length_b                        7.8351
_cell_length_c                       10.3976
_cell_angle_alpha                   90.3519
_cell_angle_beta                    89.8381
_cell_angle_gamma                   90.0021

loop_
_atom_site_label
_atom_site_type_symbol
_atom_site_fract_x
_atom_site_fract_y
_atom_site_fract_z
_atom_site_charge
  Ge     Ge        0.052090000000021    0.000000000000000    0.372269999999958  0.0000
  Ge     Ge        0.447098706128275    0.038294934983183    0.376515768613418  0.0000
  Ge     Ge        0.950625588959956    0.995237947657224    0.634352018233108  0.0000
  Ge     Ge        0.553571850899089    0.031343497472240    0.625735330760690  0.0000
  Ge     Ge        0.556828155136787    0.042848890094840    0.131066365910899  0.0000
  Ge     Ge        0.944362306893989    0.006628038191810    0.122200681070297  0.0000
  Ge     Ge        0.450381120180598    0.026085000695780    0.881589700587015  0.0000
  Ge     Ge        0.167551558166784    0.297238956176009    0.265420110274339  0.0000
  Ge     Ge        0.328164369154472    0.751833978994228    0.258953510580004  0.0000
  Ge     Ge        0.833253093110645    0.286765450796010    0.705252112783421  0.0000
  Ge     Ge        0.675849400021416    0.752560245087367    0.695892330124680  0.0000
  Ge     Ge        0.653223653959699    0.345995832860536    0.702073504830782  0.0000
  Ge     Ge        0.346701516453750    0.345831025776768    0.268016619748189  0.0000
  Ge     Ge        0.649974929921384    0.357241611497307    0.015556687609116  0.0000
  Ge     Ge        0.346402917325669    0.339333501075555    0.951434237301507  0.0000
  Ge     Ge        0.148106150752906    0.698297553942640    0.954114999707532  0.0000
  Ge     Ge        0.327450415943174    0.746419265080666    0.946853489343699  0.0000
  Ge     Ge        0.166507272618658    0.289944887705613    0.952260844539746  0.0000
  Ge     Ge        0.676821688562164    0.763969844475920    0.012405714131358  0.0000
  Ge     Ge        0.831003184472360    0.297747057181484    0.014595466980730  0.0000
  Si     Si        0.050805439406368    0.011118273699200    0.884450425086640  0.0000
  Si     Si        0.848672777356658    0.685906724728079    0.701681213862256  0.0000
  Si     Si        0.152905328021911    0.698919298940749    0.259222373800370  0.0000
  Si     Si        0.850044206857627    0.695954246225876    0.007351775334359  0.0000
  O1     O1        0.111618819263482    0.170544864323915    0.357500224808699  0.0000
  O1     O1        0.374619895092871    0.899827098764568    0.348587672980110  0.0000
  O1     O1        0.883893584064732    0.149984880366342    0.609738572079134  0.0000
  O1     O1        0.624722080138427    0.885696310457165    0.601470628650326  0.0000
  O3     O3        0.912093846794080    0.791708960244681    0.629611298756798  0.0000
  O1     O1        0.591735653228560    0.230847647254008    0.609784446803824  0.0000
  O3     O3        0.096813836709187    0.807727681369323    0.346336878732030  0.0000
  O1     O1        0.412978183660970    0.240409635162867    0.355399076873297  0.0000
  O1     O1        0.023158811177315    0.004574484168676    0.530079406269688  0.0000
  O1     O1        0.476269139342581    0.007526430106357    0.532203653868155  0.0000
  O1     O1        0.973257867068127    0.008136174131041    0.278993224430898  0.0000
  O1     O1        0.526688433833931    0.009949296079252    0.285690237357622  0.0000
  O3     O3        0.982550845192985    0.034309826548388    0.789095595036753  0.0000
  O1     O1        0.525140319692487    0.000428918259605    0.782798193369310  0.0000
  O1     O1        0.585400767894396    0.249811960266449    0.105928585905952  0.0000
  O3     O3        0.914344343127859    0.805177979396512    0.073925434115503  0.0000
  O1     O1        0.410830518912958    0.225099606847082    0.865050292139722  0.0000
  O3     O3        0.084085824365436    0.820320054396913    0.871805123061315  0.0000
  O1     O1        0.380001148482826    0.879502947889457    0.854636986883017  0.0000
  O3     O3        0.116736338890819    0.147488102950043    0.858681960573261  0.0000
  O1     O1        0.633474092204399    0.915437930085903    0.102931866740359  0.0000
  O1     O1        0.876945522006428    0.160978888749357    0.114425111373584  0.0000
  O1     O1        0.481585992949455    0.994399081685829    0.036195862013278  0.0000
  O3     O3        0.022189208449880    0.050200194035232    0.029160853777844  0.0000
  O3     O3        0.162221757574626    0.510058863285322    0.314766935585521  0.0000
  O1     O1        0.342100087507679    0.552412880717032    0.321905343391583  0.0000
  O3     O3        0.843423203092380    0.494773570351085    0.648136399567091  0.0000
  O1     O1        0.660138347748164    0.547532639321082    0.643302757463549  0.0000
  O1     O1        0.260770045732283    0.246222641978862    0.278442890036076  0.0000
  O3     O3        0.232905219303952    0.794510474732547    0.255840717609978  0.0000
  O1     O1        0.739003482741637    0.244214190133505    0.701838465088741  0.0000
  O3     O3        0.771343979602718    0.789292996800633    0.684186937828863  0.0000
  O1     O1        0.138219228208136    0.280273084630863    0.109903720314154  0.0000
  O1     O1        0.359134996439243    0.756251401300317    0.103191791128667  0.0000
  O1     O1        0.863210193357276    0.265637864295477    0.861127587546313  0.0000
  O1     O1        0.649904492346372    0.775697777533138    0.854478806505245  0.0000
  O2     O2        0.864661121779200    0.668952105523255    0.854622323337180  0.0000
  O1     O1        0.620704863030427    0.354293736963645    0.858002039845080  0.0000
  O3     O3        0.121436100408203    0.688493507968864    0.114380755303748  0.0000
  O1     O1        0.374560105723273    0.344389516067608    0.109520161253966  0.0000
  O1     O1        0.655495143429015    0.564028709226539    0.068782971478607  0.0000
  O3     O3        0.845394957526838    0.507747939297623    0.065973853925773  0.0000
  O1     O1        0.337975582725135    0.540201676737174    0.891387541090430  0.0000
  O1     O1        0.152734056091419    0.494478718690694    0.895701143975097  0.0000
  O1     O1        0.736513420034731    0.260913813792770    0.020764882050113  0.0000
  O3     O3        0.772488045599592    0.797380430389315    0.025187339231463  0.0000
  O1     O1        0.259950205701001    0.241351352476471    0.946382842168950  0.0000
  O1     O1        0.233998760392098    0.795705873589903    0.942762423045354  0.0000
