data_c00489.vasp
_audit_creation_method             Generated by GULP
_audit_author_name                 Salvador R. G. Balestra
_symmetry_space_group_name_H-M     'P 1             '
_symmetry_Int_Tables_number        1

loop_
_symmetry_equiv_pos_site_id
_symmetry_equiv_pos_as_xyz
_cell_length_a                       17.6412
_cell_length_b                        7.8323
_cell_length_c                       10.2429
_cell_angle_alpha                   91.2976
_cell_angle_beta                    90.2397
_cell_angle_gamma                   91.1626

loop_
_atom_site_label
_atom_site_type_symbol
_atom_site_fract_x
_atom_site_fract_y
_atom_site_fract_z
_atom_site_charge
  Ge     Ge        0.052090000000021    0.000000000000000    0.372269999999958  0.0000
  Ge     Ge        0.442298670375339    0.046495132795520    0.364365087858326  0.0000
  Ge     Ge        0.948257849286159    0.031732705689112    0.629110673825453  0.0000
  Ge     Ge        0.548785062164196    0.977287330528341    0.612384436711887  0.0000
  Ge     Ge        0.547909866002713    0.982851000773376    0.115487085427950  0.0000
  Ge     Ge        0.940415191545801    0.040880074614785    0.126917196895521  0.0000
  Ge     Ge        0.442377706474939    0.031031630643191    0.864689963577055  0.0000
  Ge     Ge        0.168463610931610    0.294145400549423    0.259844173518012  0.0000
  Ge     Ge        0.321681276057197    0.758935367503236    0.247961282113762  0.0000
  Ge     Ge        0.646892916116673    0.661986478767219    0.676633407664964  0.0000
  Ge     Ge        0.827418721501819    0.739024476442608    0.692044658767757  0.0000
  Ge     Ge        0.672396195529258    0.263006313150400    0.684975463396304  0.0000
  Ge     Ge        0.349190885453778    0.358047610302215    0.251539234998841  0.0000
  Ge     Ge        0.670037541418677    0.264828139042352    0.002613752868305  0.0000
  Ge     Ge        0.820884679201627    0.754421911499267    0.008478424000034  0.0000
  Ge     Ge        0.337100594577073    0.338638155372724    0.931280320050224  0.0000
  Ge     Ge        0.140391087239920    0.673099509491061    0.944070773883452  0.0000
  Ge     Ge        0.321530823506468    0.740241106998006    0.932205725649596  0.0000
  Ge     Ge        0.641073788511518    0.667608207491852    0.995825847406394  0.0000
  Ge     Ge        0.849134205550602    0.349980206622451    0.005191021724116  0.0000
  Si     Si        0.045095137628387    0.982008999215319    0.885008788482086  0.0000
  Si     Si        0.848897014267412    0.342782292632776    0.694202234119892  0.0000
  Si     Si        0.143956783144923    0.689330495470235    0.251207315887261  0.0000
  Si     Si        0.159530792950809    0.275586280793490    0.950400448323824  0.0000
  O1     O1        0.119937120271426    0.157051121411665    0.356197454574590  0.0000
  O1     O1        0.363110652611066    0.919828754751431    0.338749235459875  0.0000
  O3     O3        0.908478830524729    0.231342356342331    0.613226510679890  0.0000
  O1     O1        0.582066138839157    0.774587773764243    0.589356087789981  0.0000
  O1     O1        0.880878408467823    0.873635140517152    0.599206520992496  0.0000
  O1     O1        0.624666627244988    0.115218498517447    0.589695956835695  0.0000
  O3     O3        0.086162250270855    0.798958858558231    0.336677422071168  0.0000
  O1     O1        0.418527585569349    0.253032373465989    0.333268414255874  0.0000
  O1     O1        0.025297395282780    0.005209975720909    0.533684875190865  0.0000
  O1     O1        0.470507319812911    0.026132704415995    0.524419343446777  0.0000
  O1     O1        0.971333055783526    0.039676862614402    0.285619376501001  0.0000
  O1     O1        0.519688411502877    0.984295840603211    0.275922015417412  0.0000
  O3     O3        0.975739960094386    0.019104060708410    0.792056058897603  0.0000
  O1     O1        0.521094296825979    0.998971667911389    0.774196018175058  0.0000
  O1     O1        0.624272298762789    0.118918198874438    0.096818825365272  0.0000
  O1     O1        0.863756676123509    0.904876819745816    0.108576687625211  0.0000
  O1     O1        0.396588156350465    0.219584841187728    0.838083830743386  0.0000
  O3     O3        0.079467557866483    0.795781643388710    0.854446738444947  0.0000
  O1     O1        0.374576163383936    0.872732939563961    0.838328898399167  0.0000
  O2     O2        0.110327901479306    0.130842339359529    0.871408400267946  0.0000
  O1     O1        0.571415020837841    0.776503243809377    0.074889393019837  0.0000
  O1     O1        0.916932760570537    0.245975803182771    0.089237570308324  0.0000
  O1     O1        0.471342656226502    0.043777067898963    0.025879209373175  0.0000
  O3     O3        0.016318556473945    0.975931106186236    0.033486864544665  0.0000
  O3     O3        0.155932321455556    0.504625620015866    0.312118812538228  0.0000
  O1     O1        0.342612509280430    0.563877204328006    0.311017301433136  0.0000
  O3     O3        0.838449613810762    0.528615553780409    0.635729458868394  0.0000
  O1     O1        0.656209821429815    0.458539469521320    0.617208700763200  0.0000
  O1     O1        0.262935001095617    0.253449387788217    0.267813265255327  0.0000
  O3     O3        0.224788077165378    0.788630899053393    0.244743947793336  0.0000
  O3     O3        0.769364127817086    0.235759531962050    0.692341947889450  0.0000
  O1     O1        0.732031679915137    0.774622052993243    0.678840575006262  0.0000
  O3     O3        0.134743893172333    0.272199356186749    0.101240776129357  0.0000
  O1     O1        0.354650479138060    0.764252725268951    0.090489617567124  0.0000
  O3     O3        0.875617251790419    0.370816512590036    0.843511392534940  0.0000
  O1     O1        0.616118924487224    0.641458926925655    0.834637828562446  0.0000
  O1     O1        0.854818582260796    0.769441930897034    0.851978176701374  0.0000
  O1     O1        0.639812323062503    0.248598057247579    0.842697738728932  0.0000
  O3     O3        0.111765156317585    0.664594256335953    0.105015431297075  0.0000
  O1     O1        0.370392018327765    0.364875967584635    0.088571680086559  0.0000
  O1     O1        0.652538602184139    0.469441428253210    0.059606305751562  0.0000
  O1     O1        0.836985546978404    0.552702901598682    0.065879771460822  0.0000
  O1     O1        0.330871785108958    0.536628647896530    0.868551996800331  0.0000
  O3     O3        0.144976907948002    0.461991355519770    0.890721976567775  0.0000
  O1     O1        0.765789961831802    0.233062547493078    0.011283393704057  0.0000
  O1     O1        0.724830610790212    0.784090120454676    0.005427046003906  0.0000
  O3     O3        0.248288755774884    0.237728532293563    0.940322727600496  0.0000
  O1     O1        0.226259573947789    0.776310406221299    0.933241350360045  0.0000
