data_c00484.vasp
_audit_creation_method             Generated by GULP
_audit_author_name                 Salvador R. G. Balestra
_symmetry_space_group_name_H-M     'P 1             '
_symmetry_Int_Tables_number        1

loop_
_symmetry_equiv_pos_site_id
_symmetry_equiv_pos_as_xyz
_cell_length_a                       17.6857
_cell_length_b                        7.8632
_cell_length_c                       10.3476
_cell_angle_alpha                   88.9347
_cell_angle_beta                    90.9754
_cell_angle_gamma                   88.9044

loop_
_atom_site_label
_atom_site_type_symbol
_atom_site_fract_x
_atom_site_fract_y
_atom_site_fract_z
_atom_site_charge
  Ge     Ge        0.052090000000021    0.000000000000000    0.372269999999958  0.0000
  Ge     Ge        0.446389506401680    0.021499259519673    0.388440793190125  0.0000
  Ge     Ge        0.942690423386777    0.012065937166771    0.619895315154354  0.0000
  Ge     Ge        0.542306837134136    0.057801436156302    0.651626673668595  0.0000
  Ge     Ge        0.562988112634090    0.022179491119637    0.161880894313493  0.0000
  Ge     Ge        0.953367301669342    0.994318213979385    0.106915131204259  0.0000
  Ge     Ge        0.446539306841642    0.019052593124365    0.924367768122292  0.0000
  Ge     Ge        0.172663240742384    0.270346113722162    0.291233829263806  0.0000
  Ge     Ge        0.333125580021032    0.722452392919886    0.290758323566796  0.0000
  Ge     Ge        0.664917878884557    0.763736995816648    0.727597395629335  0.0000
  Ge     Ge        0.846670598815811    0.696166498198096    0.724416642915944  0.0000
  Ge     Ge        0.649272739815057    0.359045781971893    0.720749521553618  0.0000
  Ge     Ge        0.149551622975260    0.683719087077306    0.290783333523818  0.0000
  Ge     Ge        0.646069081926561    0.346448438889733    0.037450987484464  0.0000
  Ge     Ge        0.859782445577080    0.674161669410484    0.034295253385128  0.0000
  Ge     Ge        0.145838094308213    0.690121409812660    0.976797650039487  0.0000
  Ge     Ge        0.328587697660755    0.730046044924214    0.970885787300255  0.0000
  Ge     Ge        0.168351835542935    0.275133957248972    0.979052000123927  0.0000
  Ge     Ge        0.676288848492393    0.748439018256355    0.039926667503214  0.0000
  Ge     Ge        0.827401608826264    0.276723729706019    0.035478773081311  0.0000
  Si     Si        0.054201705769835    0.004924357298140    0.860638091453229  0.0000
  Si     Si        0.825924876110148    0.298983527599369    0.726299092631453  0.0000
  Si     Si        0.342507966746938    0.335230447023055    0.283196409786383  0.0000
  Si     Si        0.338294104695607    0.343458089459396    0.979322563092897  0.0000
  O1     O1        0.126198196110982    0.136041555256757    0.392470788871670  0.0000
  O1     O1        0.386209755388630    0.855898302551442    0.382026410367795  0.0000
  O3     O3        0.874136624606750    0.166492926805946    0.644268287012768  0.0000
  O1     O1        0.608922257259325    0.897858142002798    0.633878193397826  0.0000
  O1     O1        0.905097191479720    0.813798354147290    0.629320684875308  0.0000
  O1     O1        0.587752581024124    0.246730738583243    0.628808923150166  0.0000
  O1     O1        0.087432412321405    0.794831702362436    0.384575347496759  0.0000
  O3     O3        0.408513787140093    0.197936394474814    0.303732931545905  0.0000
  O1     O1        0.975908516559939    0.037020588391402    0.466290125945329  0.0000
  O1     O1        0.465581298206992    0.052381579297038    0.549018323907625  0.0000
  O1     O1        0.020641594054629    0.044040257392150    0.215737088492992  0.0000
  O1     O1        0.532476822999101    0.994430766213361    0.317315982551328  0.0000
  O3     O3        0.023443391811783    0.029323816717808    0.715160418125382  0.0000
  O1     O1        0.511793296908699    0.044019194269817    0.808108205095679  0.0000
  O1     O1        0.581969012349385    0.230558527642344    0.122580915231632  0.0000
  O1     O1        0.925128926743062    0.786693630157599    0.121135228639097  0.0000
  O3     O3        0.406272525181600    0.216913979632652    0.955375541437343  0.0000
  O3     O3        0.081365781149304    0.809427196789950    0.885264484536761  0.0000
  O1     O1        0.378467296305674    0.876105168015398    0.884347074518498  0.0000
  O3     O3        0.123519453690261    0.130874172728846    0.882524115394993  0.0000
  O1     O1        0.642129285777196    0.897749360202085    0.142445283401265  0.0000
  O1     O1        0.873096772580501    0.119630023667742    0.120587263712354  0.0000
  O1     O1        0.491400441015424    0.948632668328216    0.063671738554154  0.0000
  O3     O3        0.985428233422925    0.048324937716200    0.954232993232041  0.0000
  O1     O1        0.133000449044169    0.470736501450272    0.298394739413316  0.0000
  O3     O3        0.368967745369797    0.518479488759392    0.327624555344851  0.0000
  O3     O3        0.835565132464740    0.490470569532812    0.670205303560921  0.0000
  O1     O1        0.653340812060362    0.563244722513148    0.666246219419160  0.0000
  O3     O3        0.266029692449252    0.273938669108118    0.349446849928897  0.0000
  O1     O1        0.240926995636318    0.725997110494277    0.337608957989420  0.0000
  O3     O3        0.737402968196007    0.256145922522486    0.719627920658534  0.0000
  O1     O1        0.760189838332137    0.800395969966725    0.723889071316146  0.0000
  O1     O1        0.167804381545376    0.198732553640262    0.135087772498309  0.0000
  O1     O1        0.338928414853006    0.782793352977405    0.131271412728817  0.0000
  O3     O3        0.853431580524848    0.291154022978464    0.874664674187622  0.0000
  O1     O1        0.637640773435065    0.775151233174663    0.886434250547738  0.0000
  O1     O1        0.887251677746641    0.686801356416427    0.875669953491780  0.0000
  O1     O1        0.619047660925765    0.360645113062484    0.877966554166559  0.0000
  O1     O1        0.136854826945836    0.754366772944886    0.133173996652431  0.0000
  O2     O2        0.315554442093701    0.367551450651623    0.131780292477200  0.0000
  O1     O1        0.655286134968209    0.547208167230280    0.096409889213796  0.0000
  O1     O1        0.852086916617056    0.472845572218058    0.095183752139312  0.0000
  O3     O3        0.363645594720140    0.529223276159359    0.933822333121847  0.0000
  O1     O1        0.128087256728848    0.475901408584259    0.968173358087762  0.0000
  O1     O1        0.732935372593855    0.243630435771132    0.047264345716899  0.0000
  O1     O1        0.771763025268386    0.771397202982096    0.031685212281518  0.0000
  O3     O3        0.259666505298616    0.284432440535167    0.917266339004248  0.0000
  O1     O1        0.235382529559048    0.730822092274478    0.925489040418868  0.0000
