data_c00481.vasp
_audit_creation_method             Generated by GULP
_audit_author_name                 Salvador R. G. Balestra
_symmetry_space_group_name_H-M     'P 1             '
_symmetry_Int_Tables_number        1

loop_
_symmetry_equiv_pos_site_id
_symmetry_equiv_pos_as_xyz
_cell_length_a                       17.6811
_cell_length_b                        7.8179
_cell_length_c                       10.2242
_cell_angle_alpha                   90.0858
_cell_angle_beta                    90.8222
_cell_angle_gamma                   91.1837

loop_
_atom_site_label
_atom_site_type_symbol
_atom_site_fract_x
_atom_site_fract_y
_atom_site_fract_z
_atom_site_charge
  Ge     Ge        0.052090000000021    0.000000000000000    0.372269999999958  0.0000
  Ge     Ge        0.442044516464638    0.047394141149975    0.395338158050099  0.0000
  Ge     Ge        0.945230703741714    0.054464329088021    0.622007427363242  0.0000
  Ge     Ge        0.548497017396246    0.999797308478170    0.647286640530881  0.0000
  Ge     Ge        0.551730750848500    0.000667860131173    0.153963323348396  0.0000
  Ge     Ge        0.951755447778370    0.059616119131512    0.109136638993624  0.0000
  Ge     Ge        0.444709884008043    0.052882416380478    0.901534174223333  0.0000
  Ge     Ge        0.173883447651005    0.281411686600487    0.289551797425666  0.0000
  Ge     Ge        0.325804582692281    0.750660757651554    0.285214004167955  0.0000
  Ge     Ge        0.646754411186349    0.683344698540573    0.712041360916133  0.0000
  Ge     Ge        0.826925136255815    0.757371637032186    0.722758698597046  0.0000
  Ge     Ge        0.673014442783806    0.282304809164189    0.723067764342806  0.0000
  Ge     Ge        0.143835613357115    0.682160931342779    0.294462853792852  0.0000
  Ge     Ge        0.673295223270324    0.285453538608446    0.041398278108983  0.0000
  Ge     Ge        0.825656407306458    0.776292067903160    0.040054451361797  0.0000
  Ge     Ge        0.339758541465820    0.359895789092425    0.961100446843740  0.0000
  Ge     Ge        0.141226976070967    0.690936221015250    0.980908152737107  0.0000
  Ge     Ge        0.323578873872251    0.761690163409721    0.972096497215729  0.0000
  Ge     Ge        0.646506181422978    0.691342436097585    0.032687951222506  0.0000
  Ge     Ge        0.851055822410486    0.372169760554966    0.043860676990404  0.0000
  Si     Si        0.051920448301479    0.003233594806903    0.863091911155619  0.0000
  Si     Si        0.848953277981812    0.361225746547504    0.731875630724459  0.0000
  Si     Si        0.348507331337586    0.354170011617605    0.275543739906216  0.0000
  Si     Si        0.164353178192310    0.291477842951327    0.976368260025559  0.0000
  O1     O1        0.129918342708475    0.136171499109626    0.386308183377325  0.0000
  O1     O1        0.372785626993906    0.892281920063644    0.386170346862037  0.0000
  O3     O3        0.910237707418234    0.253751279457093    0.654550418984302  0.0000
  O1     O1        0.580675385639657    0.796194804475966    0.624983667619253  0.0000
  O1     O1        0.878455772381702    0.894349961579890    0.626957216720080  0.0000
  O1     O1        0.625661418007270    0.135380659002674    0.628363968604483  0.0000
  O1     O1        0.083955857324381    0.795896252689683    0.391477382537800  0.0000
  O3     O3        0.413211500876709    0.248554754524712    0.348059754695554  0.0000
  O1     O1        0.977280669178892    0.055367500549959    0.463319597421645  0.0000
  O1     O1        0.471380601014450    0.054231560427680    0.557032375646072  0.0000
  O1     O1        0.025771394993748    0.021417168374476    0.209049161985146  0.0000
  O1     O1        0.522417468886439    0.996303419059931    0.313368525637823  0.0000
  O3     O3        0.026893555155067    0.016139374136451    0.712294495302000  0.0000
  O1     O1        0.521289190792930    0.017125688787856    0.809229000968210  0.0000
  O1     O1        0.626700671582891    0.141497965638767    0.137833111929493  0.0000
  O1     O1        0.876610141520953    0.919148452544404    0.133173315606032  0.0000
  O1     O1        0.403037057793153    0.247973260302623    0.874422291876202  0.0000
  O3     O3        0.081253967021849    0.812227663893197    0.886214221593312  0.0000
  O1     O1        0.373103092663672    0.902694195126935    0.878177100333032  0.0000
  O2     O2        0.116480130906135    0.146522412926209    0.897628872414769  0.0000
  O1     O1        0.578031615358480    0.796922710152607    0.113733509998164  0.0000
  O1     O1        0.919664467556842    0.264680476038495    0.126457752359991  0.0000
  O1     O1        0.474736982129892    0.058831117043844    0.062398655007246  0.0000
  O3     O3        0.977841547873341    0.036214314006591    0.946670640225122  0.0000
  O1     O1        0.154663589596844    0.480302422588564    0.352152621232548  0.0000
  O3     O3        0.339660217867751    0.541228906349258    0.338012470344310  0.0000
  O3     O3        0.837784595165384    0.547190953625262    0.668985405359987  0.0000
  O1     O1        0.655509694838468    0.479735601291603    0.655520933404919  0.0000
  O3     O3        0.270028657288936    0.246499276620729    0.289252882202518  0.0000
  O1     O1        0.230783406776700    0.785868507984727    0.287171998991296  0.0000
  O3     O3        0.769989605083974    0.253184076774507    0.727779324569870  0.0000
  O1     O1        0.731981068543543    0.794887016787903    0.709655264831357  0.0000
  O3     O3        0.141911109865363    0.282929279912673    0.127983832055345  0.0000
  O1     O1        0.359286946548322    0.779003398733326    0.129861747513055  0.0000
  O3     O3        0.875506035897717    0.392408046424048    0.880419496872199  0.0000
  O1     O1        0.619269448830767    0.666569416122162    0.872259268951199  0.0000
  O1     O1        0.856396476677507    0.786768172645208    0.881016026625269  0.0000
  O1     O1        0.641871811652993    0.267757696089551    0.881608967259166  0.0000
  O1     O1        0.107740931081042    0.679993507463447    0.136461028661028  0.0000
  O3     O3        0.367411059160539    0.381026278541005    0.124138049873571  0.0000
  O1     O1        0.659461707774347    0.491257835057200    0.096104977226507  0.0000
  O1     O1        0.839868158475470    0.573316449351558    0.102506410908081  0.0000
  O1     O1        0.334964290215944    0.562494234957122    0.903393999261372  0.0000
  O3     O3        0.148280711261763    0.482008018329474    0.923077703049314  0.0000
  O1     O1        0.768753146461394    0.251495270914038    0.049280570146603  0.0000
  O1     O1        0.730123448406079    0.809658184295639    0.040675597506697  0.0000
  O3     O3        0.252390636726525    0.253827225452468    0.959084953506136  0.0000
  O1     O1        0.228157125947444    0.791599197834510    0.979722674787898  0.0000
