data_c00488.vasp
_audit_creation_method             Generated by GULP
_audit_author_name                 Salvador R. G. Balestra
_symmetry_space_group_name_H-M     'P 1             '
_symmetry_Int_Tables_number        1

loop_
_symmetry_equiv_pos_site_id
_symmetry_equiv_pos_as_xyz
_cell_length_a                       17.6428
_cell_length_b                        7.8034
_cell_length_c                       10.2391
_cell_angle_alpha                   91.8518
_cell_angle_beta                    89.9859
_cell_angle_gamma                   90.8399

loop_
_atom_site_label
_atom_site_type_symbol
_atom_site_fract_x
_atom_site_fract_y
_atom_site_fract_z
_atom_site_charge
  Ge     Ge        0.052090000000021    0.000000000000000    0.372269999999958  0.0000
  Ge     Ge        0.443501773360613    0.045197049491176    0.365452468817848  0.0000
  Ge     Ge        0.946214488205147    0.025426530623209    0.628156046010686  0.0000
  Ge     Ge        0.548619915275242    0.973960236860714    0.614513483268573  0.0000
  Ge     Ge        0.551285079797165    0.989109957577077    0.117627418228474  0.0000
  Ge     Ge        0.940279039104347    0.046535600924194    0.128318704052677  0.0000
  Ge     Ge        0.443838179883787    0.029787388378224    0.869064650308745  0.0000
  Ge     Ge        0.168370909331038    0.289803350292309    0.264570576296591  0.0000
  Ge     Ge        0.320693163379301    0.760342447405643    0.252714723099435  0.0000
  Ge     Ge        0.646729177308287    0.660696493067611    0.681666058414622  0.0000
  Ge     Ge        0.825650072182957    0.737432389139653    0.692032713598991  0.0000
  Ge     Ge        0.671504731535925    0.258240933681684    0.691926086775545  0.0000
  Ge     Ge        0.349950097392679    0.358814422118269    0.254883861242181  0.0000
  Ge     Ge        0.668658168698112    0.279385257794562    0.007803156009184  0.0000
  Ge     Ge        0.820590568531130    0.760237599971528    0.009331193816836  0.0000
  Ge     Ge        0.340082307802612    0.339990833148938    0.936248583264874  0.0000
  Ge     Ge        0.141417387187785    0.666260990755276    0.939640752631006  0.0000
  Ge     Ge        0.319422148532889    0.745200795751806    0.934859368851140  0.0000
  Ge     Ge        0.160354165131219    0.260815163448776    0.950022225123636  0.0000
  Ge     Ge        0.848466408190934    0.356470901545280    0.010133578182676  0.0000
  Si     Si        0.041934004153110    0.970415756119881    0.882099894123580  0.0000
  Si     Si        0.847564351707403    0.339540887952388    0.698790953872150  0.0000
  Si     Si        0.144460486498295    0.684560389381097    0.251791952566291  0.0000
  Si     Si        0.644742091574846    0.678039954245663    0.994852172489836  0.0000
  O1     O1        0.121691867023344    0.153613832419168    0.365393355113755  0.0000
  O1     O1        0.363505598492936    0.921012933787371    0.342648415601630  0.0000
  O3     O3        0.907349038552687    0.227509352384927    0.616404632165269  0.0000
  O1     O1        0.580361769615011    0.767647855170675    0.594915838797546  0.0000
  O1     O1        0.878831753822524    0.868160347871683    0.596400524326099  0.0000
  O1     O1        0.625202097811811    0.110086123753032    0.594304634074244  0.0000
  O3     O3        0.082072623835455    0.796590280463236    0.326794865813224  0.0000
  O1     O1        0.419324585328280    0.252493490174963    0.335682525019805  0.0000
  O1     O1        0.023759865070395    0.998320638936889    0.533295087825701  0.0000
  O1     O1        0.471537687328513    0.024998662003180    0.525654518855087  0.0000
  O1     O1        0.971784620314617    0.046905791410469    0.286296255264997  0.0000
  O1     O1        0.521031668649747    0.979119093044306    0.277031159644205  0.0000
  O3     O3        0.971587302709682    0.006117030237551    0.791362225339968  0.0000
  O1     O1        0.521786689244202    0.995204932330143    0.776874958547444  0.0000
  O1     O1        0.620237563131954    0.145415378229297    0.107884201351367  0.0000
  O1     O1        0.861677000718692    0.915948685936369    0.107446991885313  0.0000
  O1     O1        0.402607471837351    0.224579111441049    0.843419194359059  0.0000
  O3     O3        0.074095622414956    0.779549185746612    0.857362631973797  0.0000
  O1     O1        0.374210842230503    0.874986457542834    0.842257590143472  0.0000
  O3     O3        0.108661093064599    0.109944843332960    0.860088196270349  0.0000
  O3     O3        0.581103852349221    0.785804184299342    0.070260144058300  0.0000
  O1     O1        0.917063039014453    0.252789445752964    0.092055042383184  0.0000
  O1     O1        0.472192668295973    0.036987397250369    0.030553899556717  0.0000
  O3     O3        0.015384568126827    0.978021660435953    0.032922238965838  0.0000
  O3     O3        0.155976346046437    0.502257680755777    0.317377609424471  0.0000
  O1     O1        0.341859391691264    0.565476698996579    0.315958700935063  0.0000
  O3     O3        0.835881172986296    0.523938302976007    0.638847201337349  0.0000
  O1     O1        0.654229005354134    0.454256747128170    0.625781294697255  0.0000
  O1     O1        0.263777365765878    0.253124554257368    0.266452158975788  0.0000
  O3     O3        0.223553811501603    0.790830572187123    0.253471422363674  0.0000
  O3     O3        0.768500352948362    0.231316945405559    0.699535589861197  0.0000
  O1     O1        0.730659065212058    0.775104008000409    0.675792333630949  0.0000
  O1     O1        0.131931514474511    0.253520497846383    0.110519562819632  0.0000
  O1     O1        0.351096792358473    0.767540396394889    0.093673843235663  0.0000
  O3     O3        0.874587142447361    0.370857418740633    0.847526626764297  0.0000
  O3     O3        0.620809455396107    0.646270500880259    0.844778018459303  0.0000
  O1     O1        0.852850282078478    0.771947884874279    0.851800695100826  0.0000
  O1     O1        0.638450162691351    0.244335625918864    0.849816345137555  0.0000
  O3     O3        0.119655449628988    0.642696608245042    0.103374951473513  0.0000
  O1     O1        0.373402605701197    0.371655229931618    0.093252320982018  0.0000
  O3     O3        0.655062752400520    0.493129066969136    0.056431739077297  0.0000
  O1     O1        0.839951135136966    0.562582782797952    0.069875550723154  0.0000
  O1     O1        0.326390840275794    0.536873775487854    0.874473807903232  0.0000
  O1     O1        0.146968775166634    0.459155958554460    0.882676804325715  0.0000
  O1     O1        0.764059921865860    0.244953053440819    0.020080687344132  0.0000
  O3     O3        0.723161725325072    0.786608584642241    0.003761951197850  0.0000
  O1     O1        0.255851900349337    0.224643223232326    0.945015409390271  0.0000
  O1     O1        0.224038361931582    0.784081233767059    0.929347734302323  0.0000
