data_c00410.vasp
_audit_creation_method             Generated by GULP
_audit_author_name                 Salvador R. G. Balestra
_symmetry_space_group_name_H-M     'P 1             '
_symmetry_Int_Tables_number        1

loop_
_symmetry_equiv_pos_site_id
_symmetry_equiv_pos_as_xyz
_cell_length_a                       17.6489
_cell_length_b                        7.8446
_cell_length_c                       10.1086
_cell_angle_alpha                   88.1339
_cell_angle_beta                    91.1691
_cell_angle_gamma                   88.5228

loop_
_atom_site_label
_atom_site_type_symbol
_atom_site_fract_x
_atom_site_fract_y
_atom_site_fract_z
_atom_site_charge
  Ge     Ge        0.052090000000021    0.000000000000000    0.372269999999958  0.0000
  Ge     Ge        0.451033615442921    0.963686523150639    0.371394313578092  0.0000
  Ge     Ge        0.947153940270487    0.995308104340534    0.634731595639261  0.0000
  Ge     Ge        0.546110286037027    0.060146017393920    0.624755967191706  0.0000
  Ge     Ge        0.562779073337101    0.051745907605748    0.141071067861793  0.0000
  Ge     Ge        0.947177805496412    0.981742055846611    0.117653316604581  0.0000
  Ge     Ge        0.448194650810244    0.014018922451001    0.890435119528341  0.0000
  Ge     Ge        0.148257567025842    0.319617695242337    0.258669432438214  0.0000
  Ge     Ge        0.357741334721785    0.651002816886494    0.273420962322265  0.0000
  Ge     Ge        0.829217570634211    0.290386468713802    0.700473635697267  0.0000
  Ge     Ge        0.673620059881975    0.771061498155735    0.685578374898118  0.0000
  Ge     Ge        0.646663711552477    0.366305102014342    0.700436022431719  0.0000
  Ge     Ge        0.171303039748502    0.716455390690793    0.277256864728854  0.0000
  Ge     Ge        0.325388812055417    0.258091162366455    0.253002534175976  0.0000
  Ge     Ge        0.649316135961237    0.370994911644504    0.021578372810775  0.0000
  Ge     Ge        0.165456450309472    0.761480754946016    0.960126578055920  0.0000
  Ge     Ge        0.350099171694735    0.693740214527796    0.957454285223311  0.0000
  Ge     Ge        0.151817546440417    0.367630270439348    0.924793868043444  0.0000
  Ge     Ge        0.681791613116913    0.772529458586197    0.015323503075600  0.0000
  Ge     Ge        0.834251037704853    0.290484398614415    0.017722675660535  0.0000
  Si     Si        0.051949517049733    0.061693190175307    0.884121405214286  0.0000
  Si     Si        0.844613189291721    0.682574732391714    0.687509452264727  0.0000
  Si     Si        0.853655667235055    0.680089437212608    0.004121850868531  0.0000
  Si     Si        0.324396397301327    0.311316759148827    0.927742762687137  0.0000
  O1     O1        0.075601160416453    0.200860032686033    0.313645710417929  0.0000
  O1     O1        0.421609784408682    0.758085210714775    0.370235495087351  0.0000
  O1     O1        0.876287531046616    0.145925594623222    0.605181755469110  0.0000
  O1     O1        0.616772222813909    0.910557962613066    0.595085840284984  0.0000
  O3     O3        0.914266274547209    0.787601140758158    0.634683368347089  0.0000
  O1     O1        0.583956203929958    0.257872191967088    0.604959910948033  0.0000
  O1     O1        0.128375541446419    0.862727603763786    0.376726376253406  0.0000
  O1     O1        0.380210082249034    0.082581737355336    0.289882999627756  0.0000
  O1     O1        0.020468922501925    0.017140228372512    0.531306765417176  0.0000
  O1     O1        0.466507549551289    0.027152063024267    0.531356089120353  0.0000
  O1     O1        0.976917145424796    0.933740166757430    0.276984043422314  0.0000
  O1     O1        0.537117733955159    0.004417151565955    0.300451004439121  0.0000
  O3     O3        0.980160510811145    0.020849760471227    0.795256980750216  0.0000
  O1     O1        0.522722900996117    0.040370778886802    0.789623393237922  0.0000
  O1     O1        0.587593934628701    0.261291672690820    0.119067878941227  0.0000
  O3     O3        0.923974009398505    0.791789567171452    0.042540360126458  0.0000
  O3     O3        0.380694531988758    0.177510211585786    0.864757635340948  0.0000
  O3     O3        0.121533960474288    0.928089474526180    0.869922507982956  0.0000
  O1     O1        0.405504094983138    0.824476396696154    0.863709127306932  0.0000
  O3     O3        0.082478470526383    0.250327443212803    0.851039950420918  0.0000
  O1     O1        0.640878793559481    0.932417385396339    0.100137291667009  0.0000
  O1     O1        0.876675309131355    0.135093405550027    0.119111563739863  0.0000
  O1     O1        0.482201652534362    0.011472235764958    0.050475453912030  0.0000
  O3     O3        0.025374571939908    0.058222623005064    0.036081907245836  0.0000
  O1     O1        0.150624600830722    0.514266856722029    0.332519279641105  0.0000
  O1     O1        0.355426374637816    0.440436754654885    0.326760849490010  0.0000
  O3     O3        0.843612766898536    0.494372647818144    0.631423345283245  0.0000
  O1     O1        0.653865828177429    0.568703764260123    0.637686565479016  0.0000
  O1     O1        0.233894502270576    0.212975252736999    0.291233693968738  0.0000
  O1     O1        0.267597118639751    0.738696983280189    0.280810693443975  0.0000
  O1     O1        0.733586119903642    0.258947089139421    0.701372917166663  0.0000
  O3     O3        0.769121564217831    0.796265681403183    0.653424633057091  0.0000
  O1     O1        0.144021086837620    0.374565062627069    0.093084466484222  0.0000
  O1     O1        0.389461435775221    0.673613469021560    0.114115853936350  0.0000
  O1     O1        0.863712978599326    0.257463835782813    0.859846665495080  0.0000
  O1     O1        0.657142712357148    0.797042697842736    0.850807657864880  0.0000
  O2     O2        0.843522604660446    0.643806839637433    0.847230187314690  0.0000
  O1     O1        0.616055351185468    0.374406627458459    0.860546928984238  0.0000
  O1     O1        0.134137865497780    0.761115859080199    0.120032734182173  0.0000
  O3     O3        0.329175877880318    0.318145719017353    0.086961516718303  0.0000
  O1     O1        0.653560730656624    0.576519606512741    0.073234319347313  0.0000
  O3     O3        0.858888044548817    0.492133439528736    0.071190125222166  0.0000
  O3     O3        0.344502792916360    0.502432740388295    0.878356081000446  0.0000
  O1     O1        0.146531287494157    0.578443444835220    0.876625943798920  0.0000
  O1     O1        0.738067067841173    0.275226834742150    0.025615645821099  0.0000
  O3     O3        0.778637989786889    0.785108696935820    0.044252225667490  0.0000
  O3     O3        0.238480212617304    0.274316887814332    0.885347653221965  0.0000
  O1     O1        0.261418180114288    0.786762505967449    0.970541698023441  0.0000
