data_c00464.vasp
_audit_creation_method             Generated by GULP
_audit_author_name                 Salvador R. G. Balestra
_symmetry_space_group_name_H-M     'P 1             '
_symmetry_Int_Tables_number        1

loop_
_symmetry_equiv_pos_site_id
_symmetry_equiv_pos_as_xyz
_cell_length_a                       17.7395
_cell_length_b                        7.7927
_cell_length_c                       10.4846
_cell_angle_alpha                   90.0962
_cell_angle_beta                    90.8090
_cell_angle_gamma                   90.2455

loop_
_atom_site_label
_atom_site_type_symbol
_atom_site_fract_x
_atom_site_fract_y
_atom_site_fract_z
_atom_site_charge
  Ge     Ge        0.052090000000021    0.000000000000000    0.372269999999958  0.0000
  Ge     Ge        0.451176635171254    0.972844651376654    0.365253868557805  0.0000
  Ge     Ge        0.946765002468377    0.020269833911961    0.623297398357860  0.0000
  Ge     Ge        0.554869655281501    0.985897118708869    0.619757629281634  0.0000
  Ge     Ge        0.545893857966366    0.975878418082856    0.103646883413667  0.0000
  Ge     Ge        0.952164782739093    0.998485410102782    0.109033992629138  0.0000
  Ge     Ge        0.438319679506935    0.967893811435465    0.851531371052971  0.0000
  Ge     Ge        0.150397469748136    0.313208884093530    0.290561564497551  0.0000
  Ge     Ge        0.350713314658408    0.660639931386868    0.276034466309403  0.0000
  Ge     Ge        0.845941589886576    0.330058790776034    0.717315543429077  0.0000
  Ge     Ge        0.825307336465187    0.732410426948390    0.733267858009209  0.0000
  Ge     Ge        0.171712670710055    0.724492908813750    0.283189258921517  0.0000
  Ge     Ge        0.328140678904301    0.245761749621946    0.284667949990133  0.0000
  Ge     Ge        0.672532789942323    0.248440255186188    0.029002778679463  0.0000
  Ge     Ge        0.825413977463420    0.721546582670449    0.044719594042874  0.0000
  Ge     Ge        0.322159931518328    0.241596773496612    0.975803751460859  0.0000
  Ge     Ge        0.163568820981443    0.703272664271613    0.974961472185067  0.0000
  Ge     Ge        0.346716337245509    0.650559100824695    0.965812172153830  0.0000
  Ge     Ge        0.646139783467254    0.661103666157559    0.037715943410774  0.0000
  Ge     Ge        0.851481750451206    0.315300753104465    0.030479263960790  0.0000
  Si     Si        0.053426046178201    0.990896968897565    0.868089111682958  0.0000
  Si     Si        0.648313385082404    0.675585401482279    0.736408836741501  0.0000
  Si     Si        0.668597936506188    0.275031399431808    0.727109982757530  0.0000
  Si     Si        0.143886387469694    0.301985639395254    0.988530684785685  0.0000
  O1     O1        0.086994978446879    0.205433189821632    0.382855299115986  0.0000
  O1     O1        0.413923403450010    0.769601100418667    0.371362010882315  0.0000
  O1     O1        0.909541984912319    0.222112000028315    0.626348141289279  0.0000
  O3     O3        0.591698696107504    0.783879644619184    0.648672366219422  0.0000
  O1     O1        0.871466860119062    0.889216273244051    0.653367173857291  0.0000
  O3     O3        0.618477484431187    0.152898642822548    0.636983860419242  0.0000
  O1     O1        0.124939565288459    0.855784224167550    0.385583717992168  0.0000
  O1     O1        0.380120432121663    0.120116771191624    0.385944345242940  0.0000
  O1     O1        0.979875018758568    0.970895418673259    0.474690583118946  0.0000
  O1     O1        0.528176822048695    0.993821618439253    0.461953920440052  0.0000
  O1     O1        0.021129168081848    0.964096296210520    0.217700388310381  0.0000
  O1     O1        0.478554152364646    0.015495133388003    0.211041661089854  0.0000
  O3     O3        0.024731336727651    0.999921714282442    0.723010825030827  0.0000
  O1     O1        0.472226577437161    0.004733295389325    0.701491782003937  0.0000
  O1     O1        0.623444355612790    0.109417750401192    0.119763315051656  0.0000
  O1     O1        0.877300144172918    0.860936139637628    0.134365909197171  0.0000
  O1     O1        0.359577084358353    0.091538345973423    0.878177193838386  0.0000
  O3     O3        0.115600536498775    0.842264450300404    0.875454080972487  0.0000
  O1     O1        0.408412257848575    0.759693406481017    0.871746743751377  0.0000
  O2     O2        0.086250070161876    0.176729374127161    0.912482116014593  0.0000
  O1     O1        0.578618251396003    0.768559815968039    0.119572322817888  0.0000
  O1     O1        0.918073257604200    0.203819719248882    0.115113077256671  0.0000
  O1     O1        0.510353171837727    0.020409887427438    0.954081379589538  0.0000
  O3     O3        0.983288290660643    0.947631365865976    0.956777924354502  0.0000
  O1     O1        0.162456727713494    0.517967198214895    0.341601405804985  0.0000
  O1     O1        0.338643939865363    0.457506801679145    0.330704746023337  0.0000
  O1     O1        0.842718224262756    0.536625311232142    0.664235902495223  0.0000
  O2     O2        0.656996105153854    0.477125672099763    0.691528341103519  0.0000
  O1     O1        0.233561101505596    0.200413448356970    0.293650668178022  0.0000
  O1     O1        0.266105196958790    0.770115869432505    0.276511579819512  0.0000
  O3     O3        0.756562948892196    0.236068749025734    0.711438808354808  0.0000
  O3     O3        0.729041889366205    0.768663993259306    0.731417981729560  0.0000
  O3     O3        0.116720825595497    0.317843503428134    0.133370483591133  0.0000
  O1     O1        0.380876460519038    0.659615395892554    0.120492236152384  0.0000
  O1     O1        0.877058644331878    0.322466647614671    0.872946154179712  0.0000
  O3     O3        0.617060382645087    0.677879999345676    0.878657419565495  0.0000
  O1     O1        0.854311457748632    0.726735819975427    0.888689594442524  0.0000
  O3     O3        0.642523947213970    0.241607622812198    0.870382930271368  0.0000
  O1     O1        0.136086003655967    0.731935956380491    0.129037582289133  0.0000
  O1     O1        0.356816322403641    0.225303251971013    0.128904312498832  0.0000
  O1     O1        0.655727543344077    0.454159476678397    0.084224410169327  0.0000
  O1     O1        0.839739138816366    0.513308062106854    0.095655726466878  0.0000
  O1     O1        0.341522441304899    0.441841427517805    0.916172811161866  0.0000
  O3     O3        0.146324152211392    0.490934057476348    0.927959474204585  0.0000
  O1     O1        0.766566478656523    0.205875510768519    0.035162900771834  0.0000
  O1     O1        0.731264226756916    0.765957209428818    0.053006985335467  0.0000
  O3     O3        0.225606845397031    0.215463745010318    0.986792013868408  0.0000
  O1     O1        0.258137642184076    0.740433235507958    0.962767095798374  0.0000
