data_c00465.vasp
_audit_creation_method             Generated by GULP
_audit_author_name                 Salvador R. G. Balestra
_symmetry_space_group_name_H-M     'P 1             '
_symmetry_Int_Tables_number        1

loop_
_symmetry_equiv_pos_site_id
_symmetry_equiv_pos_as_xyz
_cell_length_a                       17.6000
_cell_length_b                        7.8024
_cell_length_c                       10.2253
_cell_angle_alpha                   90.0766
_cell_angle_beta                    91.0702
_cell_angle_gamma                   88.5666

loop_
_atom_site_label
_atom_site_type_symbol
_atom_site_fract_x
_atom_site_fract_y
_atom_site_fract_z
_atom_site_charge
  Ge     Ge        0.052090000000021    0.000000000000000    0.372269999999958  0.0000
  Ge     Ge        0.449787018021010    0.941056358371402    0.366094158405998  0.0000
  Ge     Ge        0.941921864558125    0.935281659072568    0.615147901391912  0.0000
  Ge     Ge        0.554497957222870    0.983454639879717    0.620663444193670  0.0000
  Ge     Ge        0.545685119055803    0.999472071434491    0.105454074122060  0.0000
  Ge     Ge        0.954732989540998    0.936613685499773    0.108403717062652  0.0000
  Ge     Ge        0.436945058353618    0.943354571959732    0.852089111289785  0.0000
  Ge     Ge        0.146858304056328    0.310994175725434    0.289187010186269  0.0000
  Ge     Ge        0.350962409869431    0.632136007716113    0.285713651138897  0.0000
  Ge     Ge        0.821635082290360    0.221827488270784    0.727623440431877  0.0000
  Ge     Ge        0.848130678653418    0.619723347695133    0.723124043650774  0.0000
  Ge     Ge        0.172536948417485    0.716605691625334    0.290235965372285  0.0000
  Ge     Ge        0.326278767212312    0.223237614409754    0.281805257078600  0.0000
  Ge     Ge        0.647630045752680    0.307036567243549    0.047867882152797  0.0000
  Ge     Ge        0.851889922326992    0.626670187403458    0.043786772196420  0.0000
  Ge     Ge        0.322143618024948    0.238206478302018    0.967072745768104  0.0000
  Ge     Ge        0.166740572386462    0.714516583128789    0.972574710899612  0.0000
  Ge     Ge        0.139308468644948    0.311744673772488    0.972582020923442  0.0000
  Ge     Ge        0.673323464160096    0.714520609132347    0.038617227056766  0.0000
  Ge     Ge        0.826529910905108    0.222470138076272    0.045234346063479  0.0000
  Si     Si        0.051008252931190    0.998966242027449    0.856745133262288  0.0000
  Si     Si        0.669608377344784    0.691336027862998    0.729151029793012  0.0000
  Si     Si        0.643771178918985    0.298253221016824    0.738509521533530  0.0000
  Si     Si        0.345245602072812    0.637661912823269    0.974929478545721  0.0000
  O1     O1        0.086305486793579    0.202535273411182    0.388047608158481  0.0000
  O1     O1        0.416872228364135    0.736449428771449    0.379324492523857  0.0000
  O1     O1        0.863088016372275    0.063303250901357    0.636854687493365  0.0000
  O3     O3        0.623965358462307    0.824394982720627    0.637009695097225  0.0000
  O1     O1        0.913711973675757    0.729537308732711    0.637160867743253  0.0000
  O3     O3        0.584190286660430    0.188990531747091    0.654872249084122  0.0000
  O1     O1        0.124443454231628    0.849952918846540    0.394360782271756  0.0000
  O1     O1        0.376006279605810    0.087993959085174    0.384684573955083  0.0000
  O1     O1        0.972689619834027    0.960136957333062    0.457624123640716  0.0000
  O1     O1        0.528699423663937    0.981996608205998    0.456917983693799  0.0000
  O1     O1        0.029419277281318    0.979060469605052    0.206820540014109  0.0000
  O1     O1        0.472183240354989    0.959259313785758    0.202311800811159  0.0000
  O3     O3        0.021452899221655    0.989735095423468    0.707374982881159  0.0000
  O1     O1        0.471019906432588    0.937465412299306    0.695260273536025  0.0000
  O1     O1        0.581226675775842    0.200998131923339    0.133041847541051  0.0000
  O1     O1        0.919791201585693    0.734603381583204    0.129534310361138  0.0000
  O1     O1        0.366768134942388    0.099205930036687    0.862991874106852  0.0000
  O3     O3        0.124720603400414    0.875003081293663    0.878674147424373  0.0000
  O3     O3        0.403360372102200    0.742903250405856    0.890097307049211  0.0000
  O3     O3        0.072553076256169    0.194197971124712    0.887689558167403  0.0000
  O1     O1        0.620858112866610    0.854546123620191    0.127794260637728  0.0000
  O1     O1        0.881243554160707    0.081748444752969    0.134577873363360  0.0000
  O1     O1        0.515447633315413    0.988905584609174    0.944878255716419  0.0000
  O3     O3        0.982272017198228    0.939992916933071    0.945588643941818  0.0000
  O1     O1        0.162548095378446    0.510391309636526    0.348611707631663  0.0000
  O1     O1        0.338822404195573    0.429543606353460    0.339588659053120  0.0000
  O1     O1        0.841990390401457    0.416847651044252    0.660890731096718  0.0000
  O2     O2        0.654320021552296    0.493247849058676    0.685781525330083  0.0000
  O1     O1        0.230335283667419    0.189967826724857    0.280193918701364  0.0000
  O1     O1        0.267890287248708    0.754227119638644    0.290202608882470  0.0000
  O3     O3        0.724350502579988    0.197515720677411    0.731485954407665  0.0000
  O3     O3        0.759047185682822    0.722007767985471    0.719358386137445  0.0000
  O1     O1        0.111173418530498    0.330566479279160    0.131673383622412  0.0000
  O3     O3        0.377216488316822    0.618779306258616    0.122597100786065  0.0000
  O1     O1        0.855473383305360    0.208774643863603    0.885367146804568  0.0000
  O3     O3        0.642063220546426    0.722220260071313    0.876190989503619  0.0000
  O1     O1        0.877404743833139    0.604202116873413    0.882884313583298  0.0000
  O3     O3        0.616081149527297    0.312078526612613    0.885478234553303  0.0000
  O1     O1        0.137417602118213    0.729069489093871    0.131292260081829  0.0000
  O1     O1        0.357731241980677    0.206684992388200    0.122878919254015  0.0000
  O1     O1        0.660620203861679    0.510442167379441    0.100035353346485  0.0000
  O1     O1        0.839338608067133    0.427360983085302    0.105483003644083  0.0000
  O3     O3        0.334497151690318    0.448608249449675    0.916592763150904  0.0000
  O1     O1        0.144502041827043    0.516145084625359    0.911017410458863  0.0000
  O1     O1        0.731272417322788    0.186887288738350    0.053440030418536  0.0000
  O1     O1        0.768639366070749    0.749645912845994    0.046088830244272  0.0000
  O1     O1        0.226106482909489    0.207555305936284    0.966528314255848  0.0000
  O3     O3        0.264148434399188    0.739187943826739    0.974507609676429  0.0000
