data_c00472.vasp
_audit_creation_method             Generated by GULP
_audit_author_name                 Salvador R. G. Balestra
_symmetry_space_group_name_H-M     'P 1             '
_symmetry_Int_Tables_number        1

loop_
_symmetry_equiv_pos_site_id
_symmetry_equiv_pos_as_xyz
_cell_length_a                       17.6030
_cell_length_b                        7.8414
_cell_length_c                       10.2600
_cell_angle_alpha                   88.6612
_cell_angle_beta                    90.0289
_cell_angle_gamma                   91.3342

loop_
_atom_site_label
_atom_site_type_symbol
_atom_site_fract_x
_atom_site_fract_y
_atom_site_fract_z
_atom_site_charge
  Ge     Ge        0.052090000000021    0.000000000000000    0.372269999999958  0.0000
  Ge     Ge        0.448605419901624    0.054235997869003    0.364566661840868  0.0000
  Ge     Ge        0.951128713373106    0.058983438174767    0.629460592050807  0.0000
  Ge     Ge        0.556137380229421    0.018999666702522    0.618711996796069  0.0000
  Ge     Ge        0.552804594764415    0.014897416659098    0.114368850411529  0.0000
  Ge     Ge        0.945850984561018    0.074946223870118    0.123913842040880  0.0000
  Ge     Ge        0.447399828405429    0.080127059745981    0.866621833718590  0.0000
  Ge     Ge        0.174052348158578    0.290202798529640    0.256112196000959  0.0000
  Ge     Ge        0.326622399911171    0.771979197534590    0.255846641502059  0.0000
  Ge     Ge        0.857702868429931    0.383676841448195    0.693434785534629  0.0000
  Ge     Ge        0.673775591212003    0.314091106218323    0.688151488712238  0.0000
  Ge     Ge        0.146398302330341    0.692327506689172    0.257091768356251  0.0000
  Ge     Ge        0.354255655888359    0.370049879938453    0.243847565871783  0.0000
  Ge     Ge        0.673047924441625    0.304859066093056    0.002685661769829  0.0000
  Ge     Ge        0.824553289027733    0.790529352800625    0.000704596265913  0.0000
  Ge     Ge        0.346449787321864    0.388674655266659    0.922967234060420  0.0000
  Ge     Ge        0.326034557898539    0.785773080786619    0.940923887086121  0.0000
  Ge     Ge        0.164845821602241    0.315729010774219    0.939695233007821  0.0000
  Ge     Ge        0.645815146052432    0.708287710321351    0.991710578011600  0.0000
  Ge     Ge        0.854996882646793    0.388470612533664    0.007214655750878  0.0000
  Si     Si        0.051652642592486    0.019065470432963    0.882849646408983  0.0000
  Si     Si        0.654560931470108    0.705036775923690    0.679821962485575  0.0000
  Si     Si        0.829911367489190    0.774483056459920    0.689100009314157  0.0000
  Si     Si        0.147314379667064    0.709317213122314    0.948872020797635  0.0000
  O1     O1        0.128138932242911    0.136962608584507    0.348651128109767  0.0000
  O1     O1        0.372565131822715    0.916454510177430    0.351795430090365  0.0000
  O1     O1        0.918833885321090    0.262207727867935    0.606324754670231  0.0000
  O3     O3        0.598373238645243    0.823139939970097    0.597925346495128  0.0000
  O3     O3        0.873888504988885    0.919547579896425    0.606271069137257  0.0000
  O1     O1        0.624371341986804    0.175686135679779    0.591702632923980  0.0000
  O1     O1        0.077908770949227    0.795485369585593    0.340258958155253  0.0000
  O1     O1        0.423755954324203    0.258938362188114    0.322368710663014  0.0000
  O1     O1        0.025433666512028    0.013118735306782    0.533288444845780  0.0000
  O1     O1        0.477771324080407    0.046374873306346    0.524981197216690  0.0000
  O1     O1        0.973218722655165    0.053163239305900    0.283252305390331  0.0000
  O1     O1        0.525531403393891    0.996051374420979    0.274616720598020  0.0000
  O3     O3        0.979274013182241    0.032865201781871    0.791388118891999  0.0000
  O1     O1        0.524552602400279    0.030235567196635    0.777695132937361  0.0000
  O1     O1        0.629182526385167    0.153892601196066    0.100817012629777  0.0000
  O1     O1        0.870096299216078    0.942644211795805    0.088247114518043  0.0000
  O1     O1        0.410119878308755    0.278008053480934    0.834215697813534  0.0000
  O2     O2        0.091543288464171    0.835212444216957    0.868466890925077  0.0000
  O1     O1        0.372025928273049    0.937875844202441    0.848686428755444  0.0000
  O3     O3        0.110890677514683    0.174119795121589    0.849311800354462  0.0000
  O1     O1        0.574063752338180    0.813824086841468    0.062448259953169  0.0000
  O1     O1        0.918913287313893    0.282086984689875    0.102411325303198  0.0000
  O1     O1        0.476158056841493    0.085582263041876    0.027379640402811  0.0000
  O3     O3        0.024724501045824    0.028072671190667    0.032346388243380  0.0000
  O1     O1        0.158618989720857    0.489694835246243    0.317563608981160  0.0000
  O1     O1        0.342873727982217    0.566672549789379    0.310507407802695  0.0000
  O3     O3        0.850799915883383    0.590751152299658    0.633428740073660  0.0000
  O3     O3        0.658753253245649    0.518248982880847    0.622815082702558  0.0000
  O1     O1        0.269633789685575    0.254632704410514    0.254257751034669  0.0000
  O1     O1        0.230768929280362    0.805995979633554    0.263079754068669  0.0000
  O1     O1        0.769495234244062    0.283894101761456    0.689937434755243  0.0000
  O2     O2        0.738633620561644    0.796111064424484    0.682072827717676  0.0000
  O1     O1        0.139156649889222    0.287551747233941    0.099547864629083  0.0000
  O1     O1        0.359661192398119    0.797995575098241    0.098241151336901  0.0000
  O1     O1        0.889655368261331    0.390880050065069    0.850622469819382  0.0000
  O3     O3        0.625833459982093    0.684021363549296    0.827923394912592  0.0000
  O3     O3        0.854022744023919    0.786254907683586    0.839866354405554  0.0000
  O1     O1        0.640295519091131    0.286645484642822    0.845054587110289  0.0000
  O3     O3        0.118327215348907    0.674188100345968    0.095518865797982  0.0000
  O1     O1        0.375350851363805    0.405489419958494    0.082738523144826  0.0000
  O1     O1        0.654612968563642    0.506796219523173    0.056587884909060  0.0000
  O1     O1        0.842446444708694    0.589386686001368    0.063341387964236  0.0000
  O1     O1        0.340588196017204    0.594328117799115    0.867284308051279  0.0000
  O3     O3        0.151771633169896    0.525865680335987    0.883638985332722  0.0000
  O1     O1        0.769148038909623    0.278595802707165    0.004436614285969  0.0000
  O1     O1        0.728971443294032    0.824890550037825    0.009210141999332  0.0000
  O1     O1        0.259715533921378    0.280906695703115    0.921884696805160  0.0000
  O3     O3        0.228688268446481    0.806434112108210    0.954087930229845  0.0000
