data_c00499.vasp
_audit_creation_method             Generated by GULP
_audit_author_name                 Salvador R. G. Balestra
_symmetry_space_group_name_H-M     'P 1             '
_symmetry_Int_Tables_number        1

loop_
_symmetry_equiv_pos_site_id
_symmetry_equiv_pos_as_xyz
_cell_length_a                       17.8119
_cell_length_b                        7.8272
_cell_length_c                       10.4460
_cell_angle_alpha                   90.6892
_cell_angle_beta                    89.9791
_cell_angle_gamma                   89.5209

loop_
_atom_site_label
_atom_site_type_symbol
_atom_site_fract_x
_atom_site_fract_y
_atom_site_fract_z
_atom_site_charge
  Ge     Ge        0.052090000000021    0.000000000000000    0.372269999999958  0.0000
  Ge     Ge        0.452213361672311    0.960120421765048    0.390962411243050  0.0000
  Ge     Ge        0.947145850874344    0.990705342753180    0.627074280710085  0.0000
  Ge     Ge        0.556095100664715    0.971028494498443    0.644729943575599  0.0000
  Ge     Ge        0.559147771755493    0.981608671824242    0.142726491078274  0.0000
  Ge     Ge        0.953422220934362    0.002357734073843    0.109532740153071  0.0000
  Ge     Ge        0.450508612302636    0.971941813196195    0.898823246773820  0.0000
  Ge     Ge        0.150678714935313    0.309425267267822    0.285581426253059  0.0000
  Ge     Ge        0.351672877080267    0.652576449369790    0.284738021242327  0.0000
  Ge     Ge        0.660212501537227    0.658883329381542    0.714299581802483  0.0000
  Ge     Ge        0.674759685291053    0.254486260454910    0.723524715250814  0.0000
  Ge     Ge        0.172872757940844    0.718724675774185    0.289741301130606  0.0000
  Ge     Ge        0.329338480767667    0.245026558379854    0.276237279808384  0.0000
  Ge     Ge        0.673687794768493    0.269515104379678    0.032660788626365  0.0000
  Ge     Ge        0.830431884963735    0.726708967585812    0.031506919384706  0.0000
  Ge     Ge        0.327150168510334    0.252713344765832    0.964432994327103  0.0000
  Ge     Ge        0.169929936066937    0.719726493576518    0.978277588470132  0.0000
  Ge     Ge        0.350440173784073    0.657274608319495    0.972542534191892  0.0000
  Ge     Ge        0.146639075288009    0.309997341237141    0.973886736287136  0.0000
  Ge     Ge        0.853560987113110    0.317985767206336    0.037860794571841  0.0000
  Si     Si        0.055901162988241    0.997612124006977    0.864080846283181  0.0000
  Si     Si        0.851784041102970    0.303568319278944    0.736026193547026  0.0000
  Si     Si        0.835462438051235    0.703114185286969    0.727874175391139  0.0000
  Si     Si        0.655641508334521    0.673028191137216    0.021558935305440  0.0000
  O1     O1        0.089421198331946    0.200885183218800    0.380890285486607  0.0000
  O1     O1        0.417421475551183    0.757763136878509    0.374457091819749  0.0000
  O3     O3        0.905837558560525    0.190040487773349    0.646843552147098  0.0000
  O1     O1        0.597675455875683    0.773121372896436    0.626304835364786  0.0000
  O3     O3        0.886280307128469    0.821305311813636    0.640379903489741  0.0000
  O1     O1        0.627768883645222    0.115447642094428    0.627059933432068  0.0000
  O1     O1        0.123085872718181    0.851712949709217    0.389894642441670  0.0000
  O1     O1        0.381091022562743    0.102834504648560    0.362109020546619  0.0000
  O1     O1        0.977507279087682    0.978264753655517    0.471791390170362  0.0000
  O1     O1        0.481145693929272    0.994666166969052    0.546657945588901  0.0000
  O1     O1        0.020947501369123    0.962391088825880    0.217553182937595  0.0000
  O1     O1        0.531398677649296    0.982942196704385    0.299748335296302  0.0000
  O3     O3        0.026935917326282    0.974226539606722    0.719576329662420  0.0000
  O1     O1        0.524653201688470    0.998569357367765    0.799691805170808  0.0000
  O1     O1        0.623372891467537    0.142398026457876    0.131443448161405  0.0000
  O1     O1        0.876443061961851    0.870292756526860    0.123411368059068  0.0000
  O1     O1        0.377612864633490    0.113841235518707    0.871410577821924  0.0000
  O3     O3        0.125565014239022    0.869785845463801    0.885382515336444  0.0000
  O1     O1        0.413520405318831    0.770466792211182    0.884774877645812  0.0000
  O3     O3        0.082019125578005    0.191984351644358    0.888205308602109  0.0000
  O3     O3        0.594275697339635    0.781993649247267    0.098506116553781  0.0000
  O1     O1        0.918848592899492    0.207362372998884    0.124003339374967  0.0000
  O1     O1        0.480577906418509    0.015065982619590    0.052700075603605  0.0000
  O3     O3        0.987800271161691    0.953536430380212    0.957975464533629  0.0000
  O1     O1        0.162580636252771    0.511854397691308    0.342196278944915  0.0000
  O1     O1        0.340818993598194    0.448915305728930    0.338101249163328  0.0000
  O2     O2        0.844416789305411    0.500852566650632    0.690538544349776  0.0000
  O1     O1        0.659934282397649    0.453626853497098    0.660840502445424  0.0000
  O1     O1        0.235256549374306    0.199995282788011    0.281540783465960  0.0000
  O1     O1        0.267083163672371    0.761599271035007    0.291294659096342  0.0000
  O3     O3        0.770350414400506    0.217044213077465    0.731678461596083  0.0000
  O3     O3        0.748492888178854    0.750648821643098    0.707911170956984  0.0000
  O1     O1        0.117271313911341    0.313421831359665    0.130588725089810  0.0000
  O1     O1        0.381729291282146    0.649403431031462    0.128180486585583  0.0000
  O3     O3        0.883185030094870    0.301862590577325    0.879176692906010  0.0000
  O3     O3        0.631878552474237    0.660816339036628    0.873345308509822  0.0000
  O3     O3        0.859981379960440    0.733306655027920    0.873488595220038  0.0000
  O1     O1        0.642777049986893    0.240767705601777    0.878592780070000  0.0000
  O1     O1        0.140531852995248    0.730583748992901    0.134472695862343  0.0000
  O1     O1        0.358465113598028    0.244520994621475    0.120186917374331  0.0000
  O3     O3        0.663199533706210    0.483694012001359    0.076974232037661  0.0000
  O1     O1        0.848942563116005    0.525109044419295    0.088110996191618  0.0000
  O1     O1        0.340025708635627    0.457186071913219    0.909340601449424  0.0000
  O1     O1        0.152918886247382    0.515662903933709    0.920651909093097  0.0000
  O1     O1        0.767308693010514    0.222807347319306    0.046591618378436  0.0000
  O3     O3        0.735151546619101    0.768746091806969    0.033664419240417  0.0000
  O1     O1        0.232885353067035    0.211239486317609    0.963483883321537  0.0000
  O1     O1        0.264243166728376    0.759310527264224    0.974597065252502  0.0000
