data_c00416.vasp
_audit_creation_method             Generated by GULP
_audit_author_name                 Salvador R. G. Balestra
_symmetry_space_group_name_H-M     'P 1             '
_symmetry_Int_Tables_number        1

loop_
_symmetry_equiv_pos_site_id
_symmetry_equiv_pos_as_xyz
_cell_length_a                       17.5726
_cell_length_b                        7.8254
_cell_length_c                       10.3133
_cell_angle_alpha                   88.8864
_cell_angle_beta                    90.1425
_cell_angle_gamma                   88.6319

loop_
_atom_site_label
_atom_site_type_symbol
_atom_site_fract_x
_atom_site_fract_y
_atom_site_fract_z
_atom_site_charge
  Ge     Ge        0.052090000000021    0.000000000000000    0.372269999999958  0.0000
  Ge     Ge        0.448859896344868    0.953182022324419    0.364506567269157  0.0000
  Ge     Ge        0.947872768644819    0.962303848014788    0.629331709069111  0.0000
  Ge     Ge        0.547422440800463    0.023388518015027    0.620980996390334  0.0000
  Ge     Ge        0.556797598136517    0.009251798049788    0.120856239894954  0.0000
  Ge     Ge        0.946096925201357    0.946261331777216    0.121602959303286  0.0000
  Ge     Ge        0.443889350931984    0.968613283064923    0.878238003189210  0.0000
  Ge     Ge        0.143160628459197    0.318581287630428    0.255341782629195  0.0000
  Ge     Ge        0.356562248961524    0.640616743034189    0.252996897094961  0.0000
  Ge     Ge        0.827640132934894    0.255550297339878    0.691391756825713  0.0000
  Ge     Ge        0.671424786357177    0.735558564573293    0.696950289037079  0.0000
  Ge     Ge        0.647477438768680    0.333461906448986    0.686768356024940  0.0000
  Ge     Ge        0.173802226469293    0.718500778347272    0.261009629735721  0.0000
  Ge     Ge        0.323882734144331    0.239713953599101    0.249886835840879  0.0000
  Ge     Ge        0.853716370176900    0.635047880579420    0.006981164160561  0.0000
  Ge     Ge        0.164664871248348    0.725939755851284    0.948107315694274  0.0000
  Ge     Ge        0.347297136053895    0.649634285223644    0.940638211476748  0.0000
  Ge     Ge        0.145411281627398    0.326337223993780    0.938587713286282  0.0000
  Ge     Ge        0.672977398919719    0.715187245064768    0.010357682652989  0.0000
  Ge     Ge        0.825818813845220    0.234092734592744    0.006279088859394  0.0000
  Si     Si        0.048035621972889    0.019573032668776    0.878392337135756  0.0000
  Si     Si        0.848412149034367    0.650821829639870    0.697937553797774  0.0000
  Si     Si        0.648676566782643    0.317806490015312    0.997378911971429  0.0000
  Si     Si        0.323222052596280    0.255926649293949    0.940823884308164  0.0000
  O1     O1        0.075168788511018    0.207741970837054    0.337364205544052  0.0000
  O1     O1        0.424585679445852    0.745468722492725    0.338420270400279  0.0000
  O1     O1        0.880899243625372    0.121286767958856    0.596998154928536  0.0000
  O1     O1        0.624008287883225    0.883652315077140    0.602708467888357  0.0000
  O3     O3        0.908030796884298    0.762420775384542    0.617848828635092  0.0000
  O1     O1        0.580629700135188    0.227027268585358    0.601337378885378  0.0000
  O1     O1        0.130319687952962    0.868918814211664    0.354810035544350  0.0000
  O1     O1        0.369903829815917    0.079230938848457    0.332975467719470  0.0000
  O1     O1        0.024384799421984    0.981348225689649    0.531767199741096  0.0000
  O1     O1        0.472485868995462    0.976386036510548    0.525729084695846  0.0000
  O1     O1        0.975591549354871    0.942922684372372    0.279665551562847  0.0000
  O1     O1        0.527628754859699    0.016114776727815    0.279866415476936  0.0000
  O3     O3        0.976335053105360    0.984715817272917    0.789781556120770  0.0000
  O1     O1        0.518842663980639    0.008284952458417    0.780947735732388  0.0000
  O3     O3        0.586514492089599    0.211006336719676    0.074988941616641  0.0000
  O1     O1        0.924169385425059    0.740437389418305    0.082945269670758  0.0000
  O3     O3        0.371178756014321    0.122306794283999    0.857524552097353  0.0000
  O3     O3        0.114178963555468    0.877229174690153    0.857540853167688  0.0000
  O1     O1        0.405839855680588    0.772197754271827    0.847418455222098  0.0000
  O3     O3        0.083353664158596    0.205049946651503    0.850877780971518  0.0000
  O1     O1        0.626181055906499    0.852516109323525    0.110648227553945  0.0000
  O1     O1        0.866864325782296    0.077123049419860    0.101567888690343  0.0000
  O1     O1        0.476565710735155    0.961692552016495    0.035681069490477  0.0000
  O3     O3        0.020979335022453    0.017850758507866    0.028203777680944  0.0000
  O1     O1        0.156575902903684    0.515424615241322    0.320323715375505  0.0000
  O1     O1        0.345004738081645    0.436082280120336    0.311773205184737  0.0000
  O3     O3        0.837229877722318    0.466764056515962    0.636610279772939  0.0000
  O1     O1        0.653851450523856    0.538973735308737    0.632248618065579  0.0000
  O1     O1        0.228450862047471    0.205158712803677    0.259276712372799  0.0000
  O1     O1        0.269849607027270    0.748402743499949    0.258696516543003  0.0000
  O1     O1        0.732218227883295    0.219374299070010    0.678158957622810  0.0000
  O3     O3        0.769090119020079    0.759970453810044    0.701152815707758  0.0000
  O1     O1        0.116594761580586    0.347451947446894    0.096085279317637  0.0000
  O1     O1        0.384662174182782    0.633929024208487    0.094194292079924  0.0000
  O1     O1        0.856781975394546    0.221902120155174    0.849064899099038  0.0000
  O1     O1        0.640440935973501    0.751108084754964    0.854892835340271  0.0000
  O3     O3        0.876561947791260    0.616072622507169    0.844528926235741  0.0000
  O3     O3        0.622605907136545    0.347386511096847    0.849371333412489  0.0000
  O1     O1        0.135681306679505    0.735168236257627    0.106910926389154  0.0000
  O3     O3        0.352682059968728    0.245250742072916    0.088935159824047  0.0000
  O3     O3        0.659338411986814    0.503178761961635    0.058278897872462  0.0000
  O1     O1        0.846699220990784    0.430743648216327    0.067383815173530  0.0000
  O3     O3        0.335082492135635    0.446831196836384    0.882217609782190  0.0000
  O1     O1        0.149290050514329    0.530212710011743    0.878651876390221  0.0000
  O3     O3        0.727985904350943    0.210111228307610    0.002782602066970  0.0000
  O1     O1        0.768935149043162    0.746947566496251    0.020363574875965  0.0000
  O3     O3        0.233581921071844    0.220663179290203    0.938323917281162  0.0000
  O1     O1        0.260566308544054    0.756086288879661    0.947834903975709  0.0000
