data_c00429.vasp
_audit_creation_method             Generated by GULP
_audit_author_name                 Salvador R. G. Balestra
_symmetry_space_group_name_H-M     'P 1             '
_symmetry_Int_Tables_number        1

loop_
_symmetry_equiv_pos_site_id
_symmetry_equiv_pos_as_xyz
_cell_length_a                       17.5624
_cell_length_b                        7.8196
_cell_length_c                       10.2816
_cell_angle_alpha                   89.5732
_cell_angle_beta                    89.5608
_cell_angle_gamma                   88.5612

loop_
_atom_site_label
_atom_site_type_symbol
_atom_site_fract_x
_atom_site_fract_y
_atom_site_fract_z
_atom_site_charge
  Ge     Ge        0.052090000000021    0.000000000000000    0.372269999999958  0.0000
  Ge     Ge        0.444491909700700    0.954414486473528    0.331393931892192  0.0000
  Ge     Ge        0.949055584266363    0.952006740005914    0.630451432327215  0.0000
  Ge     Ge        0.550946580074264    0.008640629813147    0.580302148721768  0.0000
  Ge     Ge        0.544890064671082    0.019562542529743    0.073519661335011  0.0000
  Ge     Ge        0.944996202910837    0.952521532813102    0.123845823729292  0.0000
  Ge     Ge        0.438738043171997    0.963922931534992    0.824227121674149  0.0000
  Ge     Ge        0.140673133223438    0.322408969479995    0.253474234123000  0.0000
  Ge     Ge        0.346227811738185    0.642590526619749    0.258226053906548  0.0000
  Ge     Ge        0.826998416610726    0.245720637425979    0.695007242278006  0.0000
  Ge     Ge        0.672849661836504    0.722922606405064    0.692050404013598  0.0000
  Ge     Ge        0.644864948142327    0.323231321816776    0.693372580552861  0.0000
  Ge     Ge        0.322975189854222    0.239505379197205    0.252295747766438  0.0000
  Ge     Ge        0.644653090305757    0.332294462694688    0.011578439876730  0.0000
  Ge     Ge        0.851147158516357    0.643900850929261    0.005801358450803  0.0000
  Ge     Ge        0.323260936128046    0.259241192145723    0.939454041207922  0.0000
  Ge     Ge        0.167048365237719    0.731399232975967    0.949335259051135  0.0000
  Ge     Ge        0.140074961023404    0.331889829716509    0.940745010436840  0.0000
  Ge     Ge        0.672043392423121    0.734251654273339    0.007946158108341  0.0000
  Ge     Ge        0.824079663567344    0.239016148829206    0.010147427240241  0.0000
  Si     Si        0.048253108147111    0.020645728510012    0.879319034735491  0.0000
  Si     Si        0.850227876231822    0.640628677098004    0.696143584548358  0.0000
  Si     Si        0.169187347098330    0.717181220330799    0.258159287906482  0.0000
  Si     Si        0.344996437188838    0.658147585556693    0.948374400725051  0.0000
  O1     O1        0.078610915271773    0.207494493439182    0.346271528528590  0.0000
  O1     O1        0.409724766002549    0.751907263293909    0.348572839401641  0.0000
  O1     O1        0.880012226423696    0.106819785078827    0.601152058399010  0.0000
  O1     O1        0.629617701903838    0.877351738727649    0.598732447437807  0.0000
  O3     O3        0.911041344349049    0.750405256076297    0.616445028974571  0.0000
  O1     O1        0.576351502843662    0.213940031045553    0.613232308029368  0.0000
  O3     O3        0.127346474210214    0.858603609958984    0.345297177425377  0.0000
  O1     O1        0.369748906912038    0.098062439450807    0.352452001119705  0.0000
  O1     O1        0.026155752883216    0.976115624876144    0.532750716459096  0.0000
  O1     O1        0.522751050609542    0.995160047809359    0.420049497107494  0.0000
  O1     O1        0.973801636885701    0.952572425759963    0.282562716280283  0.0000
  O1     O1        0.469420138547982    0.974375198351509    0.168852664901183  0.0000
  O3     O3        0.978406572743296    0.972638101646933    0.791050783112293  0.0000
  O1     O1        0.471692812786665    0.948761052541359    0.666611847189010  0.0000
  O1     O1        0.578048666744663    0.222402051847986    0.097982160998452  0.0000
  O1     O1        0.920934321038682    0.747638970120120    0.084883384704359  0.0000
  O1     O1        0.369545695868842    0.122316453321080    0.835187327862411  0.0000
  O3     O3        0.119414834435895    0.887067434135859    0.862094041050315  0.0000
  O3     O3        0.405811478794617    0.764187384714963    0.867346128205217  0.0000
  O3     O3        0.078370871232764    0.210150855853540    0.850426414873504  0.0000
  O1     O1        0.620062586700414    0.876758728975743    0.097982450987050  0.0000
  O1     O1        0.868749404629709    0.091586164242453    0.108141125621081  0.0000
  O1     O1        0.516993564777804    0.012118576626917    0.913101706003012  0.0000
  O3     O3        0.021626592482224    0.014933354098008    0.029924118646673  0.0000
  O3     O3        0.154367913429019    0.526590036542385    0.313048630026322  0.0000
  O1     O1        0.340068085566927    0.439788287880370    0.314277780069888  0.0000
  O3     O3        0.839821358130486    0.453912693483050    0.637196417565397  0.0000
  O1     O1        0.654201748792748    0.525542668299354    0.629496666993782  0.0000
  O1     O1        0.226808672892054    0.212510631537767    0.250565043337941  0.0000
  O3     O3        0.258801260057001    0.750936386537225    0.260014546194517  0.0000
  O1     O1        0.731023147018524    0.211998463836719    0.686043718857073  0.0000
  O3     O3        0.770565097706506    0.748107616595891    0.695995816485076  0.0000
  O1     O1        0.107257479292025    0.342353647554849    0.098463753184775  0.0000
  O3     O3        0.373600917143497    0.635466891540047    0.095611184529087  0.0000
  O1     O1        0.856674704865384    0.219014193299958    0.852735021332492  0.0000
  O1     O1        0.640877906954046    0.744740649308916    0.849372093553001  0.0000
  O3     O3        0.876794376125277    0.614724633820408    0.844399842119598  0.0000
  O1     O1        0.617522188279669    0.353639703361120    0.851617059264208  0.0000
  O3     O3        0.138221365772820    0.730588264679277    0.110906509784769  0.0000
  O1     O1        0.356944516395020    0.226178586316183    0.094151174495763  0.0000
  O1     O1        0.658296055002139    0.531256719471137    0.071200219907404  0.0000
  O1     O1        0.839128943793394    0.442801584912240    0.067332637758376  0.0000
  O3     O3        0.335494806875309    0.470442131986097    0.889553820143067  0.0000
  O1     O1        0.146697790970430    0.536236585540546    0.882765721320740  0.0000
  O1     O1        0.727836707148286    0.209965196542046    0.010638517735806  0.0000
  O1     O1        0.768278099192041    0.766180435310093    0.014165507591978  0.0000
  O1     O1        0.227320542101767    0.227648953494865    0.940148059270872  0.0000
  O3     O3        0.264084942493974    0.761589586327811    0.943905220021304  0.0000
