data_c00492.vasp
_audit_creation_method             Generated by GULP
_audit_author_name                 Salvador R. G. Balestra
_symmetry_space_group_name_H-M     'P 1             '
_symmetry_Int_Tables_number        1

loop_
_symmetry_equiv_pos_site_id
_symmetry_equiv_pos_as_xyz
_cell_length_a                       17.6554
_cell_length_b                        7.7989
_cell_length_c                       10.2455
_cell_angle_alpha                   91.7136
_cell_angle_beta                    89.7984
_cell_angle_gamma                   90.8118

loop_
_atom_site_label
_atom_site_type_symbol
_atom_site_fract_x
_atom_site_fract_y
_atom_site_fract_z
_atom_site_charge
  Ge     Ge        0.052090000000021    0.000000000000000    0.372269999999958  0.0000
  Ge     Ge        0.444296644569255    0.047195149013471    0.331199564576180  0.0000
  Ge     Ge        0.946812277219130    0.023352649470792    0.629660451687968  0.0000
  Ge     Ge        0.549712698414262    0.976157006566687    0.578871307732230  0.0000
  Ge     Ge        0.544872747635019    0.978467905024368    0.073642929118121  0.0000
  Ge     Ge        0.943649434902706    0.039092052356908    0.125407103973931  0.0000
  Ge     Ge        0.438145363191935    0.022304642160360    0.823427060181929  0.0000
  Ge     Ge        0.167205777402316    0.291396792669369    0.266399753980577  0.0000
  Ge     Ge        0.321678814535758    0.764815150740376    0.250969193649472  0.0000
  Ge     Ge        0.643646270285682    0.662102901898446    0.691258218543131  0.0000
  Ge     Ge        0.824732707931542    0.735795575529406    0.694121064519001  0.0000
  Ge     Ge        0.672225553478725    0.260719732119996    0.691080429848541  0.0000
  Ge     Ge        0.347137746981803    0.359870098851957    0.262068188533088  0.0000
  Ge     Ge        0.671696685272058    0.258712227328911    0.008523405116793  0.0000
  Ge     Ge        0.822756240782064    0.752361190354290    0.010478415289251  0.0000
  Ge     Ge        0.143565397224069    0.658682973469681    0.935360559374678  0.0000
  Ge     Ge        0.322541432591946    0.730526472295141    0.934477914876403  0.0000
  Ge     Ge        0.162845289787917    0.257198376525253    0.952443725178077  0.0000
  Ge     Ge        0.644698093332671    0.662668345168524    0.010735224240055  0.0000
  Ge     Ge        0.849367450036281    0.345444947969848    0.005980621151797  0.0000
  Si     Si        0.046287791328383    0.966087973152647    0.880376319726297  0.0000
  Si     Si        0.848430712736607    0.339572346649986    0.694668760818617  0.0000
  Si     Si        0.146036271293020    0.687058931901018    0.248066663216663  0.0000
  Si     Si        0.340710633030167    0.328756635351486    0.952012068143158  0.0000
  O1     O1        0.119761264802633    0.158447720493533    0.368780796416674  0.0000
  O1     O1        0.367021730173508    0.912097882599284    0.349448847883967  0.0000
  O3     O3        0.909391382671728    0.226748176412586    0.615302162831771  0.0000
  O1     O1        0.575107387141863    0.770021398097608    0.609907402482375  0.0000
  O1     O1        0.877265877081304    0.871092598143100    0.600400869591042  0.0000
  O1     O1        0.628645698386773    0.103936526970043    0.598400724085312  0.0000
  O3     O3        0.083322235741197    0.799309030024569    0.321429163301907  0.0000
  O1     O1        0.413283077632600    0.254102399901616    0.350386221853337  0.0000
  O1     O1        0.023203432915555    0.989911972842515    0.532381660735553  0.0000
  O1     O1        0.521273964667451    0.994018323823615    0.418499942725419  0.0000
  O1     O1        0.973192913510960    0.048003279743607    0.284347289142097  0.0000
  O1     O1        0.468835539271619    0.023137541572530    0.167886787084839  0.0000
  O3     O3        0.976214354310666    0.008572068002962    0.791203454099673  0.0000
  O1     O1        0.470833598449205    0.038424626881899    0.665699169857401  0.0000
  O1     O1        0.619089715793014    0.121881511665041    0.099233410028112  0.0000
  O1     O1        0.868099854333379    0.900182475518104    0.109767693915130  0.0000
  O3     O3        0.399055363979659    0.217784508834957    0.867048075519091  0.0000
  O3     O3        0.076676704474379    0.774001002128377    0.853704730628452  0.0000
  O1     O1        0.373651714852299    0.855850903767463    0.831662522518158  0.0000
  O3     O3        0.116072651989642    0.099686684048083    0.861953780581452  0.0000
  O1     O1        0.578248413143065    0.775411935509471    0.097654495709841  0.0000
  O1     O1        0.919353910823236    0.243467588342122    0.084904866074415  0.0000
  O1     O1        0.517402056905738    0.984600609664143    0.912262632817294  0.0000
  O3     O3        0.019931840274348    0.973692411263343    0.031268786154799  0.0000
  O3     O3        0.157269646038355    0.505835767361253    0.315868318750507  0.0000
  O1     O1        0.340729860903527    0.567645005269520    0.314181059988615  0.0000
  O3     O3        0.837458932394227    0.525237263517946    0.635721632214350  0.0000
  O1     O1        0.652997103217103    0.456915119173058    0.627943829507948  0.0000
  O1     O1        0.262116919439431    0.251317433691780    0.272502772214281  0.0000
  O3     O3        0.224753011937170    0.795523110050209    0.249363293978670  0.0000
  O3     O3        0.769360677624376    0.232838615714764    0.693724011732508  0.0000
  O1     O1        0.729242067780333    0.771445166451755    0.684563466854651  0.0000
  O1     O1        0.132469625587313    0.251264181600633    0.111792975375950  0.0000
  O1     O1        0.352893917701256    0.772434742322410    0.091383255692007  0.0000
  O3     O3        0.874207309196805    0.369938819904819    0.843956776449332  0.0000
  O1     O1        0.616768137790594    0.638276270489753    0.850302495673227  0.0000
  O1     O1        0.854620485009808    0.767161177802695    0.852485766634441  0.0000
  O1     O1        0.640880125350752    0.245218303804685    0.849112398665824  0.0000
  O3     O3        0.122861824596739    0.640017634216600    0.100071332114794  0.0000
  O3     O3        0.372327546448974    0.358873271631146    0.097635507683664  0.0000
  O1     O1        0.658775714956364    0.465122582592064    0.071009428893702  0.0000
  O1     O1        0.836898222343171    0.549002955776122    0.067667277109998  0.0000
  O3     O3        0.330602128697769    0.514018954621250    0.890825992031315  0.0000
  O1     O1        0.145596448591604    0.450020446751421    0.880632795401117  0.0000
  O1     O1        0.767318486984533    0.223541599677337    0.015172777399739  0.0000
  O1     O1        0.727007772867796    0.784756817848432    0.010444784874475  0.0000
  O3     O3        0.260071662357203    0.228270590021797    0.955723437516168  0.0000
  O1     O1        0.227686109378531    0.768610089029418    0.921128973821177  0.0000
