data_c00446.vasp
_audit_creation_method             Generated by GULP
_audit_author_name                 Salvador R. G. Balestra
_symmetry_space_group_name_H-M     'P 1             '
_symmetry_Int_Tables_number        1

loop_
_symmetry_equiv_pos_site_id
_symmetry_equiv_pos_as_xyz
_cell_length_a                       17.6160
_cell_length_b                        7.8651
_cell_length_c                       10.0779
_cell_angle_alpha                   87.9863
_cell_angle_beta                    91.8561
_cell_angle_gamma                   86.9429

loop_
_atom_site_label
_atom_site_type_symbol
_atom_site_fract_x
_atom_site_fract_y
_atom_site_fract_z
_atom_site_charge
  Ge     Ge        0.052090000000021    0.000000000000000    0.372269999999958  0.0000
  Ge     Ge        0.445750900594670    0.944698158492832    0.330056469429635  0.0000
  Ge     Ge        0.942389812847571    0.977594799779080    0.616969680534472  0.0000
  Ge     Ge        0.539602029679175    0.032043280550056    0.595694436580656  0.0000
  Ge     Ge        0.543972955681283    0.032319706185386    0.087516165322163  0.0000
  Ge     Ge        0.931501771578252    0.972643093934884    0.129800066263985  0.0000
  Ge     Ge        0.428909143579685    0.993009502354076    0.845338357148900  0.0000
  Ge     Ge        0.149234399975737    0.311377775733050    0.250169027307474  0.0000
  Ge     Ge        0.351587796444303    0.631959141853532    0.237911833158352  0.0000
  Ge     Ge        0.820889072361985    0.265821400260855    0.688607035477522  0.0000
  Ge     Ge        0.840239410929507    0.669129955590204    0.668967093036279  0.0000
  Ge     Ge        0.635698589493613    0.343006836959314    0.670633235126730  0.0000
  Ge     Ge        0.166767605751082    0.706159174728793    0.266532740152825  0.0000
  Ge     Ge        0.629493092218426    0.356067742929760    0.985324536439481  0.0000
  Ge     Ge        0.836575528069069    0.673323275706769    0.001240366498964  0.0000
  Ge     Ge        0.303330117426868    0.290976099008863    0.892805320121689  0.0000
  Ge     Ge        0.149126263882310    0.756672021651246    0.948991045100678  0.0000
  Ge     Ge        0.334544240811837    0.677045455732532    0.921661339931215  0.0000
  Ge     Ge        0.127288590349145    0.363097056041521    0.915449469931809  0.0000
  Ge     Ge        0.815919310999742    0.272270615808968    0.008150796000023  0.0000
  Si     Si        0.029834823098338    0.057280896857902    0.882362861538324  0.0000
  Si     Si        0.665082198133745    0.727835547101598    0.653879101917177  0.0000
  Si     Si        0.322203007781070    0.247574446484960    0.220401191838518  0.0000
  Si     Si        0.660398201869047    0.739880670725583    0.972847748819573  0.0000
  O1     O1        0.081115056060780    0.194422809055961    0.317657685498435  0.0000
  O1     O1        0.414826273586435    0.742646027603641    0.331567961325073  0.0000
  O1     O1        0.865871065153646    0.121590580146379    0.591168450360302  0.0000
  O3     O3        0.609598561462378    0.870153325672137    0.582597390328606  0.0000
  O1     O1        0.909312242165542    0.779265709610442    0.593485718224724  0.0000
  O1     O1        0.579101169947641    0.224101628607699    0.571503056759117  0.0000
  O1     O1        0.125479226686748    0.850260835799699    0.370720171018005  0.0000
  O3     O3        0.377592434155232    0.084751139638974    0.251387943562557  0.0000
  O1     O1        0.021746394779524    0.015648810783321    0.533039906073459  0.0000
  O1     O1        0.464173517328517    0.003272882537806    0.489814867239734  0.0000
  O1     O1        0.969647100713073    0.952382256599965    0.288223957009787  0.0000
  O1     O1        0.529472117219109    0.965474543016631    0.247759103749175  0.0000
  O3     O3        0.963677739253257    0.002410309894036    0.785790018215589  0.0000
  O1     O1        0.507003371383155    0.018651196144322    0.753953885383561  0.0000
  O1     O1        0.572235279356168    0.237883491340836    0.083068264738626  0.0000
  O1     O1        0.903780573066525    0.775790521149088    0.087493424176672  0.0000
  O1     O1        0.356380732714860    0.146361477602587    0.811354513795343  0.0000
  O3     O3        0.105353180793767    0.934378958343920    0.868971423143988  0.0000
  O1     O1        0.389933723365166    0.801322312970291    0.825411631602217  0.0000
  O3     O3        0.052306041630428    0.252059735666671    0.854674608823389  0.0000
  O3     O3        0.609370941348478    0.903668335290410    0.006069599754241  0.0000
  O1     O1        0.854596408114812    0.115731049389618    0.116029550600862  0.0000
  O1     O1        0.457191076708725    0.019275080977252    0.007684668155962  0.0000
  O3     O3        0.003966259883420    0.043540734120618    0.033904787803936  0.0000
  O1     O1        0.151025215815487    0.504250911227853    0.324690572017012  0.0000
  O3     O3        0.351519428489277    0.417652041280320    0.287814205781337  0.0000
  O1     O1        0.840452371437212    0.463875630243532    0.623098616467043  0.0000
  O3     O3        0.643571964469556    0.544828641534137    0.600471892655847  0.0000
  O3     O3        0.238790256679944    0.206632760193892    0.269955662515625  0.0000
  O1     O1        0.262646548233689    0.726039999102894    0.257003399258529  0.0000
  O1     O1        0.724589482679010    0.242884622471006    0.686893434706923  0.0000
  O3     O3        0.751191751178956    0.766721976164160    0.625286045880975  0.0000
  O1     O1        0.130818400228585    0.362707970518922    0.085791968900391  0.0000
  O1     O1        0.378762289241617    0.654531092014411    0.076814639011974  0.0000
  O1     O1        0.851614685401781    0.247242864235102    0.852906558176994  0.0000
  O2     O2        0.659973107719819    0.705073537298551    0.814625542789518  0.0000
  O1     O1        0.857371852167712    0.678219922262174    0.837025702464489  0.0000
  O1     O1        0.595701637310770    0.347516356951190    0.824127128096799  0.0000
  O1     O1        0.123819333768638    0.753723700558688    0.112613676015482  0.0000
  O3     O3        0.314387463743280    0.299711081292219    0.064198128498441  0.0000
  O3     O3        0.630214084818705    0.565706494889963    0.036451547687069  0.0000
  O1     O1        0.837862201042952    0.468376849414977    0.063240018240477  0.0000
  O1     O1        0.326767220920401    0.492155424957914    0.841455571783959  0.0000
  O1     O1        0.121917045503488    0.576423691321452    0.870806455400776  0.0000
  O1     O1        0.719305840486969    0.262522251449460    0.998460964971043  0.0000
  O3     O3        0.746077197148955    0.768174047654011    0.020836874492007  0.0000
  O1     O1        0.209089444465568    0.267733575811479    0.858192015672267  0.0000
  O1     O1        0.245656196593515    0.772404949349911    0.944445409693730  0.0000
