data_c00450.vasp
_audit_creation_method             Generated by GULP
_audit_author_name                 Salvador R. G. Balestra
_symmetry_space_group_name_H-M     'P 1             '
_symmetry_Int_Tables_number        1

loop_
_symmetry_equiv_pos_site_id
_symmetry_equiv_pos_as_xyz
_cell_length_a                       17.8346
_cell_length_b                        7.8457
_cell_length_c                       10.2654
_cell_angle_alpha                   87.9834
_cell_angle_beta                    91.8163
_cell_angle_gamma                   88.7202

loop_
_atom_site_label
_atom_site_type_symbol
_atom_site_fract_x
_atom_site_fract_y
_atom_site_fract_z
_atom_site_charge
  Ge     Ge        0.052090000000021    0.000000000000000    0.372269999999958  0.0000
  Ge     Ge        0.445396880250223    0.018677169247229    0.392119222323052  0.0000
  Ge     Ge        0.937785293798111    0.018288335686458    0.611543418810300  0.0000
  Ge     Ge        0.540300988299240    0.059752582942126    0.659246503457771  0.0000
  Ge     Ge        0.557191852665844    0.036816735841314    0.164900378613901  0.0000
  Ge     Ge        0.950367230212221    0.001129577940140    0.108046356421769  0.0000
  Ge     Ge        0.439726641254185    0.034855028071284    0.922553095679672  0.0000
  Ge     Ge        0.172810400586940    0.275259870739248    0.299002225277375  0.0000
  Ge     Ge        0.332878509136990    0.725014750607024    0.288009659782174  0.0000
  Ge     Ge        0.819869412091629    0.305336697274416    0.722323521013223  0.0000
  Ge     Ge        0.836811544663788    0.708801625376081    0.718941268224951  0.0000
  Ge     Ge        0.640377894258906    0.369310975919692    0.728342289520732  0.0000
  Ge     Ge        0.150659347783894    0.686420040905399    0.295518627637717  0.0000
  Ge     Ge        0.644688704326497    0.355471249694961    0.044660774662759  0.0000
  Ge     Ge        0.851558922431288    0.689062585001898    0.036181542281543  0.0000
  Ge     Ge        0.141789752979349    0.700382942951808    0.978972200332315  0.0000
  Ge     Ge        0.323909470289385    0.743526326788951    0.974804652229830  0.0000
  Ge     Ge        0.163275744556313    0.288182052355560    0.973951919935337  0.0000
  Ge     Ge        0.672643288679363    0.761170441025693    0.038561944347640  0.0000
  Ge     Ge        0.825073906042512    0.286745963895153    0.040248612991690  0.0000
  Si     Si        0.046981414314218    0.016646589945223    0.859349983425350  0.0000
  Si     Si        0.660737198033401    0.768694218545715    0.728502039277756  0.0000
  Si     Si        0.341930062902019    0.332344804356328    0.282223925360592  0.0000
  Si     Si        0.332684107638695    0.352303700700800    0.971803133403714  0.0000
  O1     O1        0.122719997483437    0.142561736641448    0.395533907814730  0.0000
  O1     O1        0.385141661411052    0.854069904126507    0.385236310713892  0.0000
  O1     O1        0.869849030096704    0.171667353026564    0.627415891962583  0.0000
  O3     O3        0.609604635266376    0.902266287830684    0.642272251667448  0.0000
  O1     O1        0.896693486287568    0.824468441731586    0.626932717154735  0.0000
  O1     O1        0.578784625973745    0.256961855334275    0.635528355896780  0.0000
  O1     O1        0.092662345313886    0.799801932098750    0.392541282519050  0.0000
  O3     O3        0.411867744635787    0.207229670545919    0.311073789884407  0.0000
  O1     O1        0.973540918325607    0.032058835329255    0.457917743844784  0.0000
  O1     O1        0.464615211742622    0.043771804865553    0.555059148139663  0.0000
  O1     O1        0.024427629969042    0.031728467882011    0.209890131933931  0.0000
  O1     O1        0.530705804157999    0.993376689006550    0.321957334188828  0.0000
  O3     O3        0.017089310676504    0.039324194377178    0.711023633861998  0.0000
  O1     O1        0.510228681326819    0.038862029224716    0.815792196726693  0.0000
  O1     O1        0.582935284061664    0.244917505155676    0.137912318044418  0.0000
  O1     O1        0.918475792984147    0.796440036117543    0.121369402981371  0.0000
  O3     O3        0.402187151558598    0.241717534102625    0.929842623749037  0.0000
  O3     O3        0.078096963268567    0.823954788141438    0.886172446006773  0.0000
  O1     O1        0.372397734350396    0.890205463501057    0.884631987216919  0.0000
  O3     O3        0.113431074280998    0.147666856314963    0.883494084296564  0.0000
  O1     O1        0.633234212696369    0.909971495316479    0.132420045255514  0.0000
  O1     O1        0.875728211366523    0.137979537311152    0.132223419490580  0.0000
  O1     O1        0.479866449366215    0.983517789438686    0.072591931247626  0.0000
  O3     O3        0.977385574232805    0.052047660128413    0.950079876684063  0.0000
  O1     O1        0.155468413201827    0.478579876687367    0.347922582432925  0.0000
  O3     O3        0.350013658945236    0.514800534896983    0.346083838434634  0.0000
  O1     O1        0.829212648161247    0.509825561041505    0.659396934630557  0.0000
  O3     O3        0.648451660737708    0.579328812813795    0.675522045301954  0.0000
  O3     O3        0.268370079050661    0.234003798671767    0.326968483528005  0.0000
  O1     O1        0.238922028821610    0.772082272704077    0.296466199526853  0.0000
  O1     O1        0.725941385990930    0.264954169140958    0.722114934364390  0.0000
  O3     O3        0.748688602338313    0.809224874175946    0.721187553288944  0.0000
  O1     O1        0.148902184949010    0.253058601603443    0.136643546366593  0.0000
  O1     O1        0.359636923921028    0.761976486889316    0.131214088670911  0.0000
  O1     O1        0.852517131278038    0.287570482112010    0.880792975665180  0.0000
  O3     O3        0.637124745121103    0.773472255489664    0.878831048813323  0.0000
  O1     O1        0.874460209346491    0.691629183954860    0.874565623007222  0.0000
  O1     O1        0.611065372530094    0.362897291682549    0.886025672503050  0.0000
  O1     O1        0.114750992477663    0.699331313645597    0.137597279287504  0.0000
  O2     O2        0.327160523028885    0.386161541306913    0.128041843751238  0.0000
  O1     O1        0.655509358005882    0.558130957197233    0.098343512618787  0.0000
  O1     O1        0.843407215046781    0.486632463348972    0.098077669107351  0.0000
  O3     O3        0.336755358368600    0.542635595855382    0.910596262861171  0.0000
  O1     O1        0.140073034093562    0.495452632343046    0.927171471697785  0.0000
  O1     O1        0.731109965023931    0.252059188018330    0.047801717915586  0.0000
  O1     O1        0.766610871074839    0.796611449038588    0.040398364188679  0.0000
  O3     O3        0.256702064441312    0.256889844245450    0.935405774164159  0.0000
  O1     O1        0.229402584516028    0.786224595951217    0.970689361746926  0.0000
