data_c00468.vasp
_audit_creation_method             Generated by GULP
_audit_author_name                 Salvador R. G. Balestra
_symmetry_space_group_name_H-M     'P 1             '
_symmetry_Int_Tables_number        1

loop_
_symmetry_equiv_pos_site_id
_symmetry_equiv_pos_as_xyz
_cell_length_a                       17.6410
_cell_length_b                        7.9234
_cell_length_c                       10.1847
_cell_angle_alpha                   88.0252
_cell_angle_beta                    90.9620
_cell_angle_gamma                   88.9693

loop_
_atom_site_label
_atom_site_type_symbol
_atom_site_fract_x
_atom_site_fract_y
_atom_site_fract_z
_atom_site_charge
  Ge     Ge        0.052090000000021    0.000000000000000    0.372269999999958  0.0000
  Ge     Ge        0.450102575088722    0.956873564055387    0.368031653385371  0.0000
  Ge     Ge        0.941306067369577    0.007589340331168    0.617150557462879  0.0000
  Ge     Ge        0.558438200487327    0.020142936721834    0.614085957348913  0.0000
  Ge     Ge        0.550662399468140    0.995931899429665    0.110488642138961  0.0000
  Ge     Ge        0.953366508383524    0.976357837026143    0.103376406780206  0.0000
  Ge     Ge        0.443541479980241    0.974750570374208    0.854141155909994  0.0000
  Ge     Ge        0.148843060109254    0.312366104862237    0.293257000701212  0.0000
  Ge     Ge        0.350938811626971    0.648503412359659    0.292820183061834  0.0000
  Ge     Ge        0.839838520632742    0.320309583153364    0.714090750337637  0.0000
  Ge     Ge        0.653213763214422    0.334929882908304    0.716334149371599  0.0000
  Ge     Ge        0.169665343401946    0.714493714645282    0.291152964241275  0.0000
  Ge     Ge        0.330072824575955    0.246573560264621    0.291461187918845  0.0000
  Ge     Ge        0.661756265511574    0.293082659645016    0.036853339798396  0.0000
  Ge     Ge        0.845344078125198    0.677333089615412    0.046794572176991  0.0000
  Ge     Ge        0.326909024733371    0.257000749455884    0.972922980549479  0.0000
  Ge     Ge        0.167190349954490    0.723647566996489    0.972645367207845  0.0000
  Ge     Ge        0.350721974541570    0.657287922007177    0.973978479468481  0.0000
  Ge     Ge        0.143559281348697    0.322205801040106    0.974892088883623  0.0000
  Ge     Ge        0.663808429284547    0.695884281425370    0.051352876767333  0.0000
  Si     Si        0.055830275699763    0.015228542831059    0.855486054464074  0.0000
  Si     Si        0.661490742357569    0.720117353168138    0.744647649906023  0.0000
  Si     Si        0.843104422078081    0.705242506250313    0.742548353348578  0.0000
  Si     Si        0.840588847795795    0.277971191885998    0.026693805215160  0.0000
  O1     O1        0.090842357451392    0.194778861389310    0.392584675322374  0.0000
  O1     O1        0.412921795983471    0.759429669221463    0.387385799355320  0.0000
  O1     O1        0.895264520741056    0.198867640118554    0.617948106914522  0.0000
  O3     O3        0.632449696753011    0.883288348729583    0.662336015162161  0.0000
  O3     O3        0.874113128423478    0.858609932790861    0.655773849183165  0.0000
  O1     O1        0.593030066451415    0.219907603110003    0.622452952569745  0.0000
  O1     O1        0.120681863548517    0.843760925802425    0.392123261370648  0.0000
  O1     O1        0.380599875817703    0.107472457004118    0.392535882635904  0.0000
  O1     O1        0.972560925173716    0.969579719341493    0.461846272336403  0.0000
  O1     O1        0.532416036868557    0.983226040314094    0.454372097648134  0.0000
  O1     O1        0.027651616723789    0.996399779065502    0.206923943597045  0.0000
  O1     O1        0.472600125946629    0.989296650189310    0.204153167896050  0.0000
  O3     O3        0.025557757293896    0.005793787870931    0.706145848445229  0.0000
  O1     O1        0.475319303032864    0.989105542932528    0.695205736498434  0.0000
  O1     O1        0.609573699563890    0.163985175273301    0.134443449312949  0.0000
  O1     O1        0.905640463936185    0.792549245992372    0.139002566500199  0.0000
  O1     O1        0.369226720420669    0.113532235355567    0.875206660295558  0.0000
  O3     O3        0.125544089636424    0.883957927489569    0.876255430421349  0.0000
  O1     O1        0.413904524413881    0.772116564128782    0.884528189462853  0.0000
  O3     O3        0.080952793206368    0.204872877854521    0.884863828462177  0.0000
  O1     O1        0.604923265000550    0.815764966393302    0.141491927156775  0.0000
  O3     O3        0.891745764830506    0.148828471521942    0.113873931848923  0.0000
  O1     O1        0.520247420009461    0.022195709020636    0.949563266463614  0.0000
  O3     O3        0.985549690656688    0.963635042185845    0.944764783933389  0.0000
  O1     O1        0.159957997382726    0.509672446621756    0.351134632081190  0.0000
  O1     O1        0.341479861097214    0.446240400390833    0.351536917988332  0.0000
  O3     O3        0.858735000007277    0.529843033508344    0.673170815259483  0.0000
  O3     O3        0.639396336063762    0.548934468231589    0.674768367681325  0.0000
  O1     O1        0.235057553181326    0.206024388483970    0.288668656204889  0.0000
  O1     O1        0.264787273138342    0.755730804196136    0.289608318418483  0.0000
  O1     O1        0.746004992984556    0.278177597469202    0.689944845024416  0.0000
  O2     O2        0.752533388912074    0.716953360673331    0.766981411663172  0.0000
  O1     O1        0.113875016763838    0.331350510795603    0.134042999127812  0.0000
  O1     O1        0.382922397009256    0.642158698455594    0.134273680229654  0.0000
  O3     O3        0.867677112215704    0.281132408047732    0.876259539699812  0.0000
  O3     O3        0.628449732132308    0.721975750127696    0.890280705362965  0.0000
  O3     O3        0.878759851179615    0.704312492860578    0.887601207913464  0.0000
  O1     O1        0.628742127021621    0.302844559739357    0.876903034547725  0.0000
  O1     O1        0.135702841240442    0.730759183321906    0.131067901111132  0.0000
  O1     O1        0.361285934346094    0.241157572846438    0.131885182491329  0.0000
  O1     O1        0.659043340162201    0.488868498540972    0.101853887174288  0.0000
  O3     O3        0.845476326641597    0.463732004430939    0.086300125398833  0.0000
  O1     O1        0.342944806002592    0.459385938670950    0.913220672993120  0.0000
  O1     O1        0.148545944539153    0.526833672801155    0.913440287665574  0.0000
  O3     O3        0.754260086389622    0.218439182042220    0.027598356140921  0.0000
  O1     O1        0.755793008637976    0.758442899437974    0.065507617261664  0.0000
  O1     O1        0.231089949678151    0.225283445609617    0.973697624693486  0.0000
  O1     O1        0.262889441862106    0.755293102568440    0.971995001775099  0.0000
