data_c00480.vasp
_audit_creation_method             Generated by GULP
_audit_author_name                 Salvador R. G. Balestra
_symmetry_space_group_name_H-M     'P 1             '
_symmetry_Int_Tables_number        1

loop_
_symmetry_equiv_pos_site_id
_symmetry_equiv_pos_as_xyz
_cell_length_a                       17.7135
_cell_length_b                        7.7940
_cell_length_c                       10.2273
_cell_angle_alpha                   90.2886
_cell_angle_beta                    90.4047
_cell_angle_gamma                   90.7001

loop_
_atom_site_label
_atom_site_type_symbol
_atom_site_fract_x
_atom_site_fract_y
_atom_site_fract_z
_atom_site_charge
  Ge     Ge        0.052090000000021    0.000000000000000    0.372269999999958  0.0000
  Ge     Ge        0.444727110357555    0.044553306113587    0.394947789613655  0.0000
  Ge     Ge        0.944200645207729    0.049807427738913    0.621806502596797  0.0000
  Ge     Ge        0.549853909127409    0.001183948790173    0.648183808137852  0.0000
  Ge     Ge        0.556491365322761    0.007577091179676    0.154902237779162  0.0000
  Ge     Ge        0.951539630565035    0.065204887684500    0.110356010678952  0.0000
  Ge     Ge        0.447872842076974    0.057145150537293    0.905341824829343  0.0000
  Ge     Ge        0.174686328194919    0.278132308922423    0.289889901199967  0.0000
  Ge     Ge        0.327014787810792    0.750683099853438    0.290445755455448  0.0000
  Ge     Ge        0.647944741672853    0.685791843204548    0.716710480711570  0.0000
  Ge     Ge        0.827110297019983    0.756363519842322    0.720671034998276  0.0000
  Ge     Ge        0.673517352186278    0.280578307992989    0.728923586995261  0.0000
  Ge     Ge        0.146647992649865    0.680662007433751    0.299733784504571  0.0000
  Ge     Ge        0.672842938184989    0.301082123045499    0.045753235659376  0.0000
  Ge     Ge        0.826836870118441    0.781415617505422    0.036022679666700  0.0000
  Ge     Ge        0.345390272327792    0.368527394510588    0.963664252042617  0.0000
  Ge     Ge        0.143499768141397    0.694962034450308    0.982296078904416  0.0000
  Ge     Ge        0.323387595567013    0.773229600750262    0.975730979291416  0.0000
  Ge     Ge        0.167975791452486    0.286274527415197    0.971049153503186  0.0000
  Ge     Ge        0.850498909045694    0.379068755369759    0.050819076636369  0.0000
  Si     Si        0.051349938930014    0.001755929808896    0.861629448901393  0.0000
  Si     Si        0.848619248674953    0.359242103211706    0.737158687775358  0.0000
  Si     Si        0.349643645129311    0.353962019613774    0.276960596255513  0.0000
  Si     Si        0.651217421805971    0.703252244095383    0.028491162010617  0.0000
  O1     O1        0.129993360772572    0.133541286841900    0.387075128340138  0.0000
  O1     O1        0.376196303133472    0.888837910218943    0.390479481724619  0.0000
  O3     O3        0.911201739578416    0.249872846566803    0.662950987606437  0.0000
  O1     O1        0.581473570111073    0.794886850749674    0.629017755973137  0.0000
  O1     O1        0.876924788968705    0.891609276918647    0.621215839777701  0.0000
  O1     O1        0.627330521790759    0.135457487884521    0.631984987300263  0.0000
  O1     O1        0.083753294372566    0.794648255357722    0.392285332814643  0.0000
  O3     O3        0.413877741247659    0.244804068719219    0.347683881526990  0.0000
  O1     O1        0.977341340503080    0.059097032150279    0.463727675488388  0.0000
  O1     O1        0.474155904971864    0.056384165681469    0.556413817546066  0.0000
  O1     O1        0.024042744054645    0.016115310080362    0.209549476128007  0.0000
  O1     O1        0.525422700758131    0.991103768279760    0.313253422029253  0.0000
  O3     O3        0.023683247151079    0.998477187187895    0.711910836871667  0.0000
  O1     O1        0.523072189094762    0.017769971907260    0.810299056380488  0.0000
  O1     O1        0.622883458947704    0.169381342176770    0.146872381481095  0.0000
  O1     O1        0.874197298662502    0.930568687007635    0.127513898256087  0.0000
  O1     O1        0.412641817891582    0.260202669640613    0.880514737286867  0.0000
  O3     O3        0.076500565333070    0.810602773746352    0.898971484789644  0.0000
  O1     O1        0.373653509436304    0.914203564389934    0.883096875681937  0.0000
  O3     O3        0.120314993697887    0.136079466280165    0.877233228455307  0.0000
  O3     O3        0.590864855425249    0.808958244931240    0.109816334983777  0.0000
  O1     O1        0.919287612666702    0.271051507626622    0.132199341900610  0.0000
  O1     O1        0.477214538263774    0.051531813322388    0.066102152642025  0.0000
  O3     O3        0.980727505821402    0.057515416564586    0.948524580537158  0.0000
  O1     O1        0.157551759198546    0.477578985987086    0.356204832229567  0.0000
  O3     O3        0.339719138778018    0.540049628691884    0.342885012054650  0.0000
  O3     O3        0.837794155882454    0.543747087187826    0.670658385254857  0.0000
  O1     O1        0.655230280079045    0.479652094421555    0.664217831020738  0.0000
  O3     O3        0.271304995216382    0.245767416250422    0.284551763996352  0.0000
  O1     O1        0.232201022818130    0.788856379990706    0.297038698650653  0.0000
  O3     O3        0.770342955503754    0.250463187565422    0.732471026715102  0.0000
  O1     O1        0.732495992846300    0.795756781496331    0.707966491265691  0.0000
  O1     O1        0.140847131628526    0.268250542342547    0.131477602651210  0.0000
  O1     O1        0.357835371989867    0.783559733812834    0.133827125769630  0.0000
  O3     O3        0.872097949193469    0.397396624743801    0.885753981100203  0.0000
  O3     O3        0.622573195748089    0.676802958881750    0.880622466103825  0.0000
  O1     O1        0.858338959049251    0.792674671014832    0.877394413267535  0.0000
  O1     O1        0.642512888733094    0.265989375122420    0.887999173160356  0.0000
  O1     O1        0.114817937563748    0.668412490307122    0.140331513766350  0.0000
  O3     O3        0.370549282930726    0.390468813052128    0.127699610580980  0.0000
  O3     O3        0.663244124218296    0.516193419216239    0.089620300009716  0.0000
  O1     O1        0.843971130503164    0.584581199332067    0.105786319070468  0.0000
  O1     O1        0.334410326903549    0.571431288141775    0.907738290924508  0.0000
  O1     O1        0.152507543628230    0.492706586635595    0.917344295756553  0.0000
  O1     O1        0.767501308026071    0.263482926917964    0.061202117401034  0.0000
  O3     O3        0.729996880887277    0.810479140459297    0.029983017633599  0.0000
  O1     O1        0.262716196410895    0.250441338199319    0.957658316718871  0.0000
  O1     O1        0.227860809469685    0.807070992804529    0.979560076122000  0.0000
