data_c00440.vasp
_audit_creation_method             Generated by GULP
_audit_author_name                 Salvador R. G. Balestra
_symmetry_space_group_name_H-M     'P 1             '
_symmetry_Int_Tables_number        1

loop_
_symmetry_equiv_pos_site_id
_symmetry_equiv_pos_as_xyz
_cell_length_a                       17.8124
_cell_length_b                        7.8215
_cell_length_c                       10.3998
_cell_angle_alpha                   90.3479
_cell_angle_beta                    90.5206
_cell_angle_gamma                   90.2806

loop_
_atom_site_label
_atom_site_type_symbol
_atom_site_fract_x
_atom_site_fract_y
_atom_site_fract_z
_atom_site_charge
  Ge     Ge        0.052090000000021    0.000000000000000    0.372269999999958  0.0000
  Ge     Ge        0.449513391792908    0.038149590668606    0.361937379837395  0.0000
  Ge     Ge        0.944110612404990    0.001749623551554    0.622523525263735  0.0000
  Ge     Ge        0.553382964189060    0.037529379101269    0.616963262131553  0.0000
  Ge     Ge        0.547588516542131    0.031907234407463    0.102496590351491  0.0000
  Ge     Ge        0.954668095370473    0.009367809893801    0.107271463045047  0.0000
  Ge     Ge        0.438365802646181    0.029080420980307    0.854204857375378  0.0000
  Ge     Ge        0.170291359166032    0.280200732314164    0.287952911259756  0.0000
  Ge     Ge        0.328813277047453    0.757527581569547    0.279480838285770  0.0000
  Ge     Ge        0.828641527512129    0.295644932444535    0.728395993953292  0.0000
  Ge     Ge        0.669751584902141    0.744248836248056    0.728854238343718  0.0000
  Ge     Ge        0.150457608421448    0.690171447432857    0.284153282269109  0.0000
  Ge     Ge        0.347643925081939    0.345306680040706    0.281501555160681  0.0000
  Ge     Ge        0.651487764675052    0.346355714705681    0.037178789435522  0.0000
  Ge     Ge        0.850096262622824    0.694324733192108    0.037662842256433  0.0000
  Ge     Ge        0.143914172812188    0.686235559107594    0.971903536603304  0.0000
  Ge     Ge        0.325584515534888    0.739780628239779    0.969440896261937  0.0000
  Ge     Ge        0.167464075994231    0.280101058661919    0.975495310127576  0.0000
  Ge     Ge        0.672694016151287    0.755871107056661    0.041466878152862  0.0000
  Ge     Ge        0.829229561738823    0.284917589367286    0.040192346853279  0.0000
  Si     Si        0.055020725492163    0.000210614846369    0.859995298889597  0.0000
  Si     Si        0.845464023655640    0.694665175089515    0.728772527515542  0.0000
  Si     Si        0.652715042607764    0.344641207349626    0.728984985073381  0.0000
  Si     Si        0.344861026163616    0.337518546088887    0.976277287367460  0.0000
  O1     O1        0.121313111828637    0.152991277647039    0.391040498509625  0.0000
  O1     O1        0.379329929673226    0.887878725581387    0.380727029937624  0.0000
  O1     O1        0.878719100524415    0.159933319463748    0.633869071249501  0.0000
  O1     O1        0.617797755106026    0.877692223576464    0.635662204319160  0.0000
  O3     O3        0.904517992290908    0.803713009635109    0.648064900920657  0.0000
  O3     O3        0.593223472471879    0.235390293649819    0.647041952507487  0.0000
  O1     O1        0.090609349449581    0.800434747515319    0.382128566883499  0.0000
  O1     O1        0.412261776889819    0.239692916882305    0.373030360615138  0.0000
  O1     O1        0.975646129947559    0.015605039019008    0.467429619100154  0.0000
  O1     O1        0.526465795898239    0.021989881068311    0.457780278019945  0.0000
  O1     O1        0.024805938682791    0.036923090148679    0.214615206500247  0.0000
  O1     O1        0.475861630034562    0.002131841749071    0.204548739851210  0.0000
  O3     O3        0.024574871193778    0.024547812630167    0.715720067254237  0.0000
  O1     O1        0.470779767883802    0.021036747865998    0.699169563181568  0.0000
  O1     O1        0.584183849039166    0.235876256064295    0.116873237871409  0.0000
  O1     O1        0.918746428370915    0.805085406214202    0.116999175642339  0.0000
  O3     O3        0.401079224676692    0.227797288754681    0.890349564174501  0.0000
  O3     O3        0.079918701160755    0.805350697424623    0.884963522693390  0.0000
  O1     O1        0.371857126979505    0.870998889574365    0.866423872469253  0.0000
  O3     O3        0.126713439209606    0.123095270788935    0.881525535599861  0.0000
  O1     O1        0.620294535682090    0.891285213797805    0.131177887160787  0.0000
  O1     O1        0.881849543246719    0.150030618847367    0.130992820577938  0.0000
  O1     O1        0.515793301897127    0.993789595096931    0.948173121832967  0.0000
  O3     O3        0.987786808811937    0.051403999793628    0.954043837196166  0.0000
  O1     O1        0.162610493691139    0.488970834128779    0.340929392772703  0.0000
  O1     O1        0.338349133982984    0.550080250110186    0.333288363553335  0.0000
  O3     O3        0.839980725665090    0.503287632435776    0.673320003977708  0.0000
  O3     O3        0.658084881125785    0.535392084897929    0.674312308163150  0.0000
  O1     O1        0.264313978344998    0.233606240452191    0.288771449060014  0.0000
  O1     O1        0.234488927514930    0.800833504090260    0.279053285274272  0.0000
  O3     O3        0.733235583759621    0.251452705263705    0.723120833289607  0.0000
  O3     O3        0.765130597848552    0.788577983678052    0.721871434675666  0.0000
  O1     O1        0.137652472084699    0.268516690308893    0.131209942295333  0.0000
  O1     O1        0.359300276028351    0.770531516833505    0.122677695941211  0.0000
  O1     O1        0.858779149751410    0.271737687278231    0.883026540560752  0.0000
  O1     O1        0.641884695826132    0.767794079557972    0.884019889605892  0.0000
  O3     O3        0.872740029407361    0.683663187697687    0.875918276097282  0.0000
  O3     O3        0.625921862727568    0.355548002803315    0.875807844331158  0.0000
  O1     O1        0.115243136038867    0.682610775358293    0.129074760964114  0.0000
  O3     O3        0.376349801939986    0.346267463773072    0.121658983282563  0.0000
  O1     O1        0.661490148710905    0.548848419946167    0.095340268577299  0.0000
  O1     O1        0.841477564379936    0.492218123480899    0.095127926317214  0.0000
  O3     O3        0.337354621279050    0.527893123332372    0.921772419170207  0.0000
  O1     O1        0.146846629207507    0.479350900465550    0.915832727755299  0.0000
  O1     O1        0.735354140182426    0.238303738754676    0.047251922669724  0.0000
  O1     O1        0.766635438025113    0.802877309068438    0.049687195317180  0.0000
  O3     O3        0.263382710564050    0.247139296079087    0.976434810971448  0.0000
  O1     O1        0.231134074237497    0.779028600806062    0.965404148756901  0.0000
