data_c00421.vasp
_audit_creation_method             Generated by GULP
_audit_author_name                 Salvador R. G. Balestra
_symmetry_space_group_name_H-M     'P 1             '
_symmetry_Int_Tables_number        1

loop_
_symmetry_equiv_pos_site_id
_symmetry_equiv_pos_as_xyz
_cell_length_a                       17.5999
_cell_length_b                        7.8139
_cell_length_c                       10.2672
_cell_angle_alpha                   88.8932
_cell_angle_beta                    90.7495
_cell_angle_gamma                   88.5620

loop_
_atom_site_label
_atom_site_type_symbol
_atom_site_fract_x
_atom_site_fract_y
_atom_site_fract_z
_atom_site_charge
  Ge     Ge        0.052090000000021    0.000000000000000    0.372269999999958  0.0000
  Ge     Ge        0.442332895785454    0.956601161693705    0.359773257280055  0.0000
  Ge     Ge        0.944387738447134    0.963589178453715    0.624778217923786  0.0000
  Ge     Ge        0.543210595538212    0.018732340215587    0.615060546118708  0.0000
  Ge     Ge        0.551881611573489    0.017172278785817    0.120862759422238  0.0000
  Ge     Ge        0.945717318551424    0.952234969366345    0.118163940302664  0.0000
  Ge     Ge        0.441586811527011    0.962363677941610    0.873401380705024  0.0000
  Ge     Ge        0.145786938306514    0.317414746664665    0.251674671249649  0.0000
  Ge     Ge        0.352250934143639    0.639405344633095    0.244935902581927  0.0000
  Ge     Ge        0.823598805358127    0.256313945739675    0.688248929753128  0.0000
  Ge     Ge        0.669315769225047    0.735344855087126    0.685962011452210  0.0000
  Ge     Ge        0.642122907091820    0.334259678486184    0.681781652470595  0.0000
  Ge     Ge        0.171629627346579    0.717123298668080    0.261646331011180  0.0000
  Ge     Ge        0.643347741818046    0.330924393289602    0.999841764330186  0.0000
  Ge     Ge        0.852182330454544    0.644004173178047    0.999502293576220  0.0000
  Ge     Ge        0.321705122145798    0.261022885874008    0.934934976351512  0.0000
  Ge     Ge        0.162295510444658    0.732671357410594    0.946433235488906  0.0000
  Ge     Ge        0.141207400944747    0.332332092730452    0.932806154986046  0.0000
  Ge     Ge        0.673466558595238    0.735070408167174    0.004041059036335  0.0000
  Ge     Ge        0.823650336253533    0.240334610703153    0.004205394900870  0.0000
  Si     Si        0.045316662098149    0.025517208367676    0.874288427847804  0.0000
  Si     Si        0.845821741628151    0.651224365537650    0.688268093527947  0.0000
  Si     Si        0.324026331580221    0.242913803368190    0.243591505760184  0.0000
  Si     Si        0.340466561297762    0.657844866728448    0.937704468026857  0.0000
  O1     O1        0.080617150872659    0.203672868834223    0.335721666918830  0.0000
  O1     O1        0.419526032787189    0.748216579515981    0.328953114967671  0.0000
  O1     O1        0.875681089632522    0.119607224679064    0.593959164987169  0.0000
  O1     O1        0.620397984106674    0.882543877886361    0.591416518161506  0.0000
  O3     O3        0.906243838944574    0.762081330259319    0.609809707339933  0.0000
  O1     O1        0.575475769991606    0.223089554581803    0.596815134757759  0.0000
  O1     O1        0.128640806477569    0.863371356583995    0.359219181190163  0.0000
  O3     O3        0.366258079762811    0.094906215202663    0.327829347180215  0.0000
  O1     O1        0.021565237818453    0.989721444585877    0.530624665995711  0.0000
  O1     O1        0.465645823867164    0.975330968999977    0.522206741436236  0.0000
  O1     O1        0.975832206417668    0.945231212637979    0.277390725676108  0.0000
  O1     O1        0.523616670440995    0.009978608312115    0.280384437293238  0.0000
  O3     O3        0.973714737385518    0.981611909428275    0.786790546824728  0.0000
  O1     O1        0.517422619569707    0.984588702766387    0.775594971322119  0.0000
  O1     O1        0.575646231604200    0.224048238815330    0.084169851494784  0.0000
  O1     O1        0.923617931994047    0.747249911744051    0.075932047848502  0.0000
  O1     O1        0.377038595705281    0.129566886801199    0.844508855724604  0.0000
  O3     O3        0.114623980457529    0.889148588146235    0.855639635170210  0.0000
  O3     O3        0.395221265940132    0.770682491765676    0.849947767396231  0.0000
  O3     O3        0.076034683367391    0.214916962673651    0.846056207743127  0.0000
  O1     O1        0.628719600238222    0.881867395934915    0.098971077960196  0.0000
  O1     O1        0.868491455778253    0.089059787237623    0.102052379968490  0.0000
  O1     O1        0.474228014479683    0.957574313046844    0.031679426526105  0.0000
  O3     O3        0.020716413090030    0.021418384968377    0.025467319624787  0.0000
  O1     O1        0.155250037952687    0.513601878343050    0.319748390439375  0.0000
  O3     O3        0.342840922193307    0.429523359972007    0.299517967125184  0.0000
  O3     O3        0.834508573274722    0.465552847432042    0.628869048856506  0.0000
  O1     O1        0.651274567384470    0.537640993731042    0.622371124486941  0.0000
  O3     O3        0.234193326654880    0.212903273854741    0.247462118735511  0.0000
  O1     O1        0.267447556122713    0.747705619107855    0.261981855579592  0.0000
  O1     O1        0.727898437545627    0.221560543229447    0.680116824423481  0.0000
  O3     O3        0.766843576685645    0.761474770265868    0.686942393247168  0.0000
  O1     O1        0.116541055927311    0.349377509016522    0.093282838048994  0.0000
  O3     O3        0.376182115415042    0.633096517368026    0.082541709637313  0.0000
  O1     O1        0.854434375836615    0.225677947716661    0.846482176907600  0.0000
  O1     O1        0.641216926943877    0.750917623411826    0.845425908354280  0.0000
  O3     O3        0.873297946164978    0.618524357073645    0.836718518217127  0.0000
  O1     O1        0.613671708098072    0.351867034824822    0.840556140613454  0.0000
  O1     O1        0.134357811539500    0.740706837093213    0.105827454681013  0.0000
  O3     O3        0.352600347805914    0.234890482140832    0.095431358658123  0.0000
  O1     O1        0.657184332199984    0.529915393471361    0.061096870608001  0.0000
  O1     O1        0.841543998996523    0.441873644927824    0.062080122706277  0.0000
  O3     O3        0.329706286470743    0.471812257727840    0.879248959040805  0.0000
  O1     O1        0.144486092647048    0.538856333340614    0.876072494099511  0.0000
  O1     O1        0.727355117630614    0.212724685063095    0.004808312240993  0.0000
  O1     O1        0.769718567145328    0.764843991596272    0.011155887652848  0.0000
  O1     O1        0.226973249132459    0.222399568247255    0.923372568058020  0.0000
  O3     O3        0.259676892435176    0.758920840295269    0.948791236488656  0.0000
