data_c00436.vasp
_audit_creation_method             Generated by GULP
_audit_author_name                 Salvador R. G. Balestra
_symmetry_space_group_name_H-M     'P 1             '
_symmetry_Int_Tables_number        1

loop_
_symmetry_equiv_pos_site_id
_symmetry_equiv_pos_as_xyz
_cell_length_a                       17.6418
_cell_length_b                        7.8336
_cell_length_c                       10.2083
_cell_angle_alpha                   90.1333
_cell_angle_beta                    90.3587
_cell_angle_gamma                   88.7075

loop_
_atom_site_label
_atom_site_type_symbol
_atom_site_fract_x
_atom_site_fract_y
_atom_site_fract_z
_atom_site_charge
  Ge     Ge        0.052090000000021    0.000000000000000    0.372269999999958  0.0000
  Ge     Ge        0.450212611078809    0.950191944290034    0.399278767218593  0.0000
  Ge     Ge        0.943372493908710    0.950649608646081    0.621081603318067  0.0000
  Ge     Ge        0.555303467631845    0.007480954005394    0.654792005324484  0.0000
  Ge     Ge        0.554642091319355    0.998679367022425    0.149433127100329  0.0000
  Ge     Ge        0.950973883682230    0.945828666115241    0.110466766836889  0.0000
  Ge     Ge        0.447101570231849    0.943219721869936    0.901749036782811  0.0000
  Ge     Ge        0.146544781124406    0.315571471289941    0.295836197930629  0.0000
  Ge     Ge        0.354643691342179    0.638061976629908    0.282821634391060  0.0000
  Ge     Ge        0.828212513631091    0.249000541481577    0.726640914594987  0.0000
  Ge     Ge        0.674575425459656    0.712852089670594    0.725859119024706  0.0000
  Ge     Ge        0.174510206034588    0.717830870497951    0.291910117428597  0.0000
  Ge     Ge        0.326710510376864    0.235574200973641    0.285619940902701  0.0000
  Ge     Ge        0.646564285767246    0.314371726413177    0.030330360980716  0.0000
  Ge     Ge        0.847255335283206    0.635839713486582    0.046791535680914  0.0000
  Ge     Ge        0.323070917610069    0.231130872533959    0.968410163076755  0.0000
  Ge     Ge        0.167298648811887    0.713627009715109    0.973225435398879  0.0000
  Ge     Ge        0.347678749110658    0.631817363694361    0.963031881514518  0.0000
  Ge     Ge        0.141868722317930    0.308626572336679    0.978309655607850  0.0000
  Ge     Ge        0.826783941781305    0.234240490741456    0.042314066653537  0.0000
  Si     Si        0.051160078010549    0.999861863460482    0.861139447609015  0.0000
  Si     Si        0.850903221780186    0.641040003946946    0.732531088547444  0.0000
  Si     Si        0.649979174835646    0.319668120640986    0.720908637887328  0.0000
  Si     Si        0.671679127650152    0.713487569528226    0.036987766699696  0.0000
  O1     O1        0.084614087389054    0.203544206449262    0.390489542722174  0.0000
  O1     O1        0.423012134074544    0.745270251659970    0.367264940386562  0.0000
  O1     O1        0.872336528664158    0.102135518569886    0.628241252317716  0.0000
  O1     O1        0.626249241958563    0.855297736632146    0.630585669155462  0.0000
  O3     O3        0.913484175733351    0.748629203783943    0.658656322196235  0.0000
  O3     O3        0.593164048733177    0.208275920761140    0.633896915605491  0.0000
  O1     O1        0.126885244664959    0.857850961762812    0.391818670595855  0.0000
  O1     O1        0.374367586390915    0.086969460929869    0.377988519217747  0.0000
  O1     O1        0.974804740989678    0.951271552469963    0.461972219519815  0.0000
  O1     O1        0.477817799553633    0.970717282061885    0.561037450956880  0.0000
  O1     O1        0.025841141654000    0.981857461590855    0.208430226739245  0.0000
  O1     O1        0.529412736054597    0.999611185497733    0.311450154843452  0.0000
  O3     O3        0.023362667572180    0.000408156638074    0.711017741870013  0.0000
  O1     O1        0.525712665147939    0.987888983638939    0.814718563364095  0.0000
  O1     O1        0.580333862685337    0.204455608192229    0.113320028532989  0.0000
  O1     O1        0.912555290952670    0.747108643712899    0.132020196585979  0.0000
  O1     O1        0.373567631445111    0.088310206016055    0.875954755099525  0.0000
  O3     O3        0.121169680808104    0.867427374124687    0.879928696047785  0.0000
  O1     O1        0.411133140056750    0.744163337196770    0.873154391979310  0.0000
  O3     O3        0.074972757813999    0.191714798999818    0.895959878108433  0.0000
  O3     O3        0.627728554644161    0.851225746828515    0.125023240234888  0.0000
  O1     O1        0.878005945765848    0.091770906342710    0.134202028554289  0.0000
  O1     O1        0.474712548469434    0.947005403457224    0.064650196359670  0.0000
  O3     O3        0.980129969690106    0.946049524344679    0.948097097510846  0.0000
  O1     O1        0.161009810613778    0.515602201570820    0.354414367085618  0.0000
  O1     O1        0.342365948512793    0.437896080454427    0.345827194591696  0.0000
  O3     O3        0.844492376402749    0.453740862502586    0.669485716665454  0.0000
  O3     O3        0.657547107132114    0.509085952292314    0.665752156523663  0.0000
  O1     O1        0.231131400826242    0.200953928645908    0.288497852712094  0.0000
  O1     O1        0.269916939133811    0.753085429516633    0.289206273438911  0.0000
  O3     O3        0.731251828866752    0.221531487086519    0.726030055054497  0.0000
  O3     O3        0.770913685945749    0.744949831607839    0.720817979964850  0.0000
  O1     O1        0.113109971923966    0.332483244944555    0.137291082570645  0.0000
  O1     O1        0.379752128745239    0.612657971685171    0.122080014851475  0.0000
  O1     O1        0.859398423055718    0.217761818881844    0.883613685966571  0.0000
  O3     O3        0.644172535872814    0.731366340785783    0.886510982584311  0.0000
  O3     O3        0.872599243339828    0.612802717641387    0.883526271813234  0.0000
  O3     O3        0.618390207508972    0.330217439073512    0.868411212934006  0.0000
  O1     O1        0.139309302351668    0.727535572026135    0.133695537829514  0.0000
  O1     O1        0.357558605690891    0.221766880135146    0.126497034319776  0.0000
  O3     O3        0.656561691788741    0.521518204649023    0.086963372529415  0.0000
  O1     O1        0.840769845199519    0.435127771906074    0.106753820283120  0.0000
  O1     O1        0.334932273832973    0.431875736369665    0.902613578836127  0.0000
  O1     O1        0.149973207254075    0.510551136473302    0.915264169515727  0.0000
  O1     O1        0.731054429398113    0.203076330018149    0.044294308283335  0.0000
  O3     O3        0.760950648490222    0.746672434770788    0.047096378769774  0.0000
  O1     O1        0.227313779213534    0.198598961234355    0.971825029545843  0.0000
  O1     O1        0.262799574201398    0.745789978720019    0.966291597614829  0.0000
