data_c00401.vasp
_audit_creation_method             Generated by GULP
_audit_author_name                 Salvador R. G. Balestra
_symmetry_space_group_name_H-M     'P 1             '
_symmetry_Int_Tables_number        1

loop_
_symmetry_equiv_pos_site_id
_symmetry_equiv_pos_as_xyz
_cell_length_a                       17.5841
_cell_length_b                        7.8132
_cell_length_c                       10.2814
_cell_angle_alpha                   89.7976
_cell_angle_beta                    89.9846
_cell_angle_gamma                   91.4580

loop_
_atom_site_label
_atom_site_type_symbol
_atom_site_fract_x
_atom_site_fract_y
_atom_site_fract_z
_atom_site_charge
  Ge     Ge        0.052090000000021    0.000000000000000    0.372269999999958  0.0000
  Ge     Ge        0.452529908389283    0.057651489727603    0.356907658286830  0.0000
  Ge     Ge        0.948241894845250    0.067879594286802    0.624357572870001  0.0000
  Ge     Ge        0.555081350049843    0.020946645714685    0.612939191865221  0.0000
  Ge     Ge        0.552726415012938    0.005397605994558    0.097188315294042  0.0000
  Ge     Ge        0.955435881456723    0.069680504000712    0.109391673812609  0.0000
  Ge     Ge        0.441969752091933    0.062416381710644    0.851483575153771  0.0000
  Ge     Ge        0.174317679118090    0.284595874274920    0.290062138227364  0.0000
  Ge     Ge        0.328369054883528    0.776666380034855    0.280625931627101  0.0000
  Ge     Ge        0.858830526545233    0.389680154938659    0.732449285452725  0.0000
  Ge     Ge        0.651228956241950    0.706709535884318    0.730170371719395  0.0000
  Ge     Ge        0.676453760672695    0.306789419646896    0.724274675859264  0.0000
  Ge     Ge        0.148513916659085    0.689732304823711    0.289423700694202  0.0000
  Ge     Ge        0.353154542955973    0.369675214268558    0.284126572113156  0.0000
  Ge     Ge        0.674447010340144    0.303124308893425    0.038314094807724  0.0000
  Ge     Ge        0.827778147708322    0.782710281917778    0.042422348860764  0.0000
  Ge     Ge        0.143489361478392    0.691426986305467    0.973940951792505  0.0000
  Ge     Ge        0.326431065838090    0.765177803245594    0.966829790860742  0.0000
  Ge     Ge        0.170769712213389    0.288929807962111    0.974188098400965  0.0000
  Ge     Ge        0.856063531903296    0.382959249277864    0.047364779203960  0.0000
  Si     Si        0.056290722979032    0.004648774292918    0.860349806829170  0.0000
  Si     Si        0.828275759409219    0.783160739500500    0.731406733212794  0.0000
  Si     Si        0.349283639146481    0.367423561007323    0.974906026178114  0.0000
  Si     Si        0.652868951926407    0.697438380025433    0.042509749185179  0.0000
  O1     O1        0.124777215107202    0.149311475419821    0.391600809233819  0.0000
  O1     O1        0.377577733169720    0.914072784261666    0.380010141132407  0.0000
  O1     O1        0.923097447605743    0.276134659851891    0.643454297937382  0.0000
  O1     O1        0.581395975726761    0.818278869276134    0.657339180604792  0.0000
  O3     O3        0.871624494234027    0.931509190336883    0.652004725100657  0.0000
  O1     O1        0.631518808742021    0.157855927301560    0.628158253177106  0.0000
  O1     O1        0.086717818276253    0.797908612302020    0.386829095336904  0.0000
  O1     O1        0.420426339433814    0.262996998282740    0.370186897211690  0.0000
  O1     O1        0.974783533187761    0.039178650409822    0.464898736856211  0.0000
  O1     O1        0.529292651846952    0.019272320891998    0.450982190622786  0.0000
  O1     O1        0.026758486393045    0.018040945286757    0.209450249587657  0.0000
  O1     O1        0.477037413145955    0.028746403943551    0.195735289232131  0.0000
  O3     O3        0.028826932961228    0.016774066713648    0.711832348382073  0.0000
  O1     O1        0.474176196175984    0.078268723907418    0.693731418960196  0.0000
  O1     O1        0.621395207874953    0.161214914448155    0.128753055683736  0.0000
  O1     O1        0.877591187798647    0.932018439997490    0.127224734691590  0.0000
  O3     O3        0.408968343401281    0.261815511511538    0.892763125654702  0.0000
  O3     O3        0.076961997133191    0.809369857746044    0.891310502721709  0.0000
  O1     O1        0.372589460415981    0.904864789727550    0.863770835706212  0.0000
  O3     O3        0.130102927536364    0.127420654474641    0.882255402550082  0.0000
  O3     O3        0.590433903192059    0.802644714139449    0.118328264870539  0.0000
  O1     O1        0.921006830126439    0.270719191977350    0.135042695158679  0.0000
  O1     O1        0.521601634924711    0.015028022880770    0.938900110607697  0.0000
  O3     O3        0.986587894041353    0.064287948867453    0.948901560488388  0.0000
  O1     O1        0.163534707212906    0.490053982651053    0.348245370344507  0.0000
  O1     O1        0.341269929770877    0.571372947803057    0.339687779450540  0.0000
  O3     O3        0.846769867289939    0.596285338342950    0.674120894524283  0.0000
  O1     O1        0.657388705923012    0.507414660076759    0.664263967597359  0.0000
  O1     O1        0.269909021061066    0.248054231210660    0.290647028308682  0.0000
  O1     O1        0.232368588855962    0.809711458002931    0.280872425745032  0.0000
  O1     O1        0.772722485214720    0.281651996557513    0.725051039922829  0.0000
  O3     O3        0.738530933721013    0.815145642969219    0.720721803905260  0.0000
  O1     O1        0.140301461160593    0.271719311974224    0.132442999665241  0.0000
  O1     O1        0.359947238609885    0.793968419001003    0.121771401919697  0.0000
  O1     O1        0.888934675516594    0.398040842477923    0.889666622746000  0.0000
  O3     O3        0.630035702266588    0.671482744944169    0.892068954681815  0.0000
  O3     O3        0.855395431889786    0.787707470228496    0.880625191938172  0.0000
  O1     O1        0.643261768668077    0.281127710915114    0.880673692508724  0.0000
  O1     O1        0.114863843850442    0.670750585980170    0.132634897630965  0.0000
  O3     O3        0.379412324212138    0.387530457581504    0.121514106194659  0.0000
  O3     O3        0.663464373911256    0.509351414802781    0.100306558956049  0.0000
  O1     O1        0.846410722716860    0.584187712938069    0.106846165438728  0.0000
  O3     O3        0.339172623230103    0.555514000356121    0.915302553560946  0.0000
  O1     O1        0.148847601725624    0.486934224604262    0.913185935790902  0.0000
  O1     O1        0.770256886697212    0.270252021513566    0.044324187622700  0.0000
  O3     O3        0.730953727444433    0.811393627178139    0.048768319547842  0.0000
  O3     O3        0.268310196516157    0.265257542934969    0.975087562214309  0.0000
  O1     O1        0.230285234771586    0.795813740364206    0.965311016465682  0.0000
