data_c00435.vasp
_audit_creation_method             Generated by GULP
_audit_author_name                 Salvador R. G. Balestra
_symmetry_space_group_name_H-M     'P 1             '
_symmetry_Int_Tables_number        1

loop_
_symmetry_equiv_pos_site_id
_symmetry_equiv_pos_as_xyz
_cell_length_a                       17.5858
_cell_length_b                        7.8287
_cell_length_c                       10.2224
_cell_angle_alpha                   89.7192
_cell_angle_beta                    90.4745
_cell_angle_gamma                   92.0294

loop_
_atom_site_label
_atom_site_type_symbol
_atom_site_fract_x
_atom_site_fract_y
_atom_site_fract_z
_atom_site_charge
  Ge     Ge        0.052090000000021    0.000000000000000    0.372269999999958  0.0000
  Ge     Ge        0.453314609604458    0.062285168827765    0.363911100677435  0.0000
  Ge     Ge        0.945981206929451    0.049893373274957    0.623214130063444  0.0000
  Ge     Ge        0.559562352275964    0.005760172400447    0.613552418544927  0.0000
  Ge     Ge        0.550788592032212    0.989174767858524    0.106095910467205  0.0000
  Ge     Ge        0.953707803425680    0.054517020968736    0.106812744099225  0.0000
  Ge     Ge        0.445869052633016    0.059172786700627    0.852091216162579  0.0000
  Ge     Ge        0.174578780754696    0.285909322284538    0.293289855029813  0.0000
  Ge     Ge        0.328964520779063    0.776186424894785    0.287355297067714  0.0000
  Ge     Ge        0.854785607716585    0.368047462793080    0.733716256554914  0.0000
  Ge     Ge        0.650143104247932    0.686315948868635    0.732294051869272  0.0000
  Ge     Ge        0.148385364437831    0.689186792623230    0.293162081002402  0.0000
  Ge     Ge        0.354657359323287    0.372463914085146    0.291443413205132  0.0000
  Ge     Ge        0.677133898077365    0.279625470687951    0.039193850950971  0.0000
  Ge     Ge        0.831355675364390    0.754686527331215    0.044251671499641  0.0000
  Ge     Ge        0.354187345395141    0.369975756349043    0.972608069892320  0.0000
  Ge     Ge        0.143114872342925    0.687333140589759    0.977125091579079  0.0000
  Ge     Ge        0.325864045014151    0.772237883685267    0.970674349375663  0.0000
  Ge     Ge        0.171725366478403    0.285044819070452    0.974430559504500  0.0000
  Ge     Ge        0.650019416486385    0.679493517933301    0.050538746085544  0.0000
  Si     Si        0.055630525820400    0.997388494331283    0.859816143610319  0.0000
  Si     Si        0.830159176737686    0.760490815177899    0.734270515767495  0.0000
  Si     Si        0.675586921643056    0.294329668893887    0.728731385300083  0.0000
  Si     Si        0.854180707512523    0.358944059465673    0.043044131927526  0.0000
  O1     O1        0.125758058422467    0.148258856249289    0.394823186700523  0.0000
  O1     O1        0.379679542645889    0.914309801989809    0.386349855461622  0.0000
  O1     O1        0.917487434120130    0.254909353484272    0.646106454995173  0.0000
  O1     O1        0.588613280563905    0.801524459311763    0.640160975891834  0.0000
  O3     O3        0.870707615212554    0.908159670807763    0.648893661403287  0.0000
  O3     O3        0.634435640753340    0.148076194695766    0.643233519233417  0.0000
  O1     O1        0.086154393595354    0.798434890837145    0.387376840060331  0.0000
  O1     O1        0.419686780705612    0.263408220470939    0.382838332813320  0.0000
  O1     O1        0.973500374746499    0.032327813867958    0.463098182814601  0.0000
  O1     O1        0.533454195144090    0.022941730208310    0.451235982354325  0.0000
  O1     O1        0.028019429060259    0.030746879503744    0.208964004902114  0.0000
  O1     O1        0.477222656126133    0.043167004221161    0.200107837522495  0.0000
  O3     O3        0.028020657816455    0.006322359174168    0.709804948593737  0.0000
  O1     O1        0.477474491372501    0.051788707538668    0.693385108846899  0.0000
  O1     O1        0.629195416258628    0.127489582253220    0.125376600212770  0.0000
  O1     O1        0.886267560285489    0.893356923252794    0.134088494539502  0.0000
  O1     O1        0.420603487297389    0.264170944834709    0.886287806479600  0.0000
  O3     O3        0.077528793738544    0.803800140593293    0.891185078867111  0.0000
  O1     O1        0.367802526227033    0.924009615081098    0.872195765762647  0.0000
  O3     O3        0.127692546709224    0.125937320358660    0.882277467931530  0.0000
  O1     O1        0.584357030102025    0.788653273167084    0.136567284343496  0.0000
  O3     O3        0.912822909602688    0.251965037859847    0.127603366843920  0.0000
  O1     O1        0.521427462717302    0.997100594898573    0.945082655663683  0.0000
  O3     O3        0.984665314545421    0.051807274582419    0.946320211849558  0.0000
  O1     O1        0.163288529386029    0.490033963804076    0.352866387138539  0.0000
  O1     O1        0.341825282027259    0.572578593349323    0.348937836791648  0.0000
  O3     O3        0.849669674116939    0.575584134318341    0.676627598963901  0.0000
  O3     O3        0.656135114476735    0.480518445517037    0.672216078551111  0.0000
  O1     O1        0.270361393933670    0.251996098759625    0.291682477017350  0.0000
  O1     O1        0.233077718125363    0.808567805977299    0.286779920724701  0.0000
  O3     O3        0.765544661994802    0.269257271377370    0.725023281506286  0.0000
  O3     O3        0.740086354604433    0.783724162679115    0.731202532177131  0.0000
  O1     O1        0.142019795789674    0.274388462312015    0.133637816510687  0.0000
  O1     O1        0.360975375998077    0.790271741901506    0.128178253150770  0.0000
  O3     O3        0.884109536604572    0.375551298653571    0.894779769368689  0.0000
  O1     O1        0.619534076818832    0.677882779596801    0.889581910619054  0.0000
  O3     O3        0.860059071328617    0.774116863338576    0.882926552893287  0.0000
  O3     O3        0.646039320294914    0.280193595793184    0.877305775622204  0.0000
  O1     O1        0.113302056463338    0.669483577363996    0.135895725821293  0.0000
  O1     O1        0.384450034926244    0.389840273371227    0.131917226784449  0.0000
  O1     O1        0.658274625523550    0.475736067383497    0.105519319170038  0.0000
  O3     O3        0.843599587395800    0.546195074750083    0.099852842717771  0.0000
  O1     O1        0.343096132095967    0.571716200693352    0.911139725854475  0.0000
  O1     O1        0.151782288925627    0.485873167739359    0.914683159328485  0.0000
  O3     O3        0.773866414037436    0.251827141012979    0.040919866223435  0.0000
  O1     O1        0.736759538219868    0.790199273695873    0.057048426642444  0.0000
  O1     O1        0.267883258770805    0.258517757339634    0.968549064075377  0.0000
  O1     O1        0.229560906239529    0.795953410876602    0.975299334160905  0.0000
